
This summary file was generated by TurbSim (v1.06.00, 21-Sep-2012) on 22-Dec-2013 at 09:46:36.


Runtime Options:

   2318573  Random seed #1
    RANLUX  Type of random number generator
         F  Output binary HH turbulence parameters?
         F  Output formatted turbulence parameters?
         F  Output AeroDyn HH files?
         F  Output AeroDyn FF files?
         T  Output BLADED FF files?
         F  Output tower data?
         F  Output formatted FF files?
         T  Output coherent turbulence time step file?
         T  Clockwise rotation when looking downwind?
 1 -   HUB  IEC turbulence models scaled to exact specified standard deviation


Turbine/Model Specifications:

        15  Vertical grid-point matrix dimension
        15  Horizontal grid-point matrix dimension
     0.050  Time step [seconds]
   660.000  Analysis time [seconds]
   660.000  Usable output time [seconds]
    90.000  Hub height [m]
   150.000  Grid height [m]
   150.000  Grid width [m]
     0.000  Vertical flow angle [degrees]
     0.000  Horizontal flow angle [degrees]


Meteorological Boundary Conditions:

    IECKAI  IEC Kaimal spectral model
         1  IEC standard: IEC 61400-1 Ed. 3: 2005
         A  IEC turbulence characteristic
       NTM  IEC Normal Turbulence Model
       N/A  IEC Extreme Turbulence Model (ETM) "c" parameter [m/s]
       IEC  Wind profile type
    90.000  Reference height [m]
    10.000  Reference wind speed [m/s]
       N/A  Jet height [m]
     0.200  Power law exponent
     0.030  Surface roughness length [m]


Coherent turbulence time step files are not available for IEC or TIDAL spectral models.

WARNING:   A coherent turbulence time step file cannot be generated with the IECKAI model.



You have requested that the following file(s) be generated:

   C:\Users\Gordon Stewart\Documents\Turbsim\TurbSim.wnd (AeroDyn/BLADED full-field wnd file)


Turbulence Simulation Scaling Parameter Summary:

   Turbulence model used                            =  IEC Kaimal
   Turbulence characteristic                        =  A
   IEC turbulence type                              =  Normal Turbulence Model
   IEC standard                                     =  IEC 61400-1 Ed. 3: 2005
   Mean wind speed at hub height                    =   10.000 m/s
   Expected value of turbulence intensity at 15 m/s =   16.000%
   Characteristic value of standard deviation       =    2.096 m/s
   Turbulence scale                                 =   42.000 m
   u-component integral scale                       =  340.200 m
   Coherency scale                                  =  340.200 m
   Characteristic value of hub turbulence intensity =   20.960%
   Gradient Richardson number                       =    0.000

   Wind profile type                                =  Power law on rotor disk, logarithmic elsewhere
   Power law exponent                               =    0.200
   Mean shear across rotor disk                     =    0.029 (m/s)/m
   Assumed rotor diameter                           =  150.000 m
   Surface roughness length                         =    0.030 m

   Number of time steps in the FFT                  =    13500
   Number of time steps output                      =    13500


Mean Flow Angles:

   Vertical   =   0.0 degrees
   Horizontal =   0.0 degrees

Mean Wind Speed Profile:

   Height    Wind Speed   Horizontal Angle  U-comp (X)   V-comp (Y)   W-comp (Z)
     (m)        (m/s)         (degrees)       (m/s)        (m/s)        (m/s)   
   ------    ----------   ----------------  ----------   ----------   ----------
    165.0       11.29            0.00         11.29         0.00         0.00
    154.3       11.14            0.00         11.14         0.00         0.00
    143.6       10.98            0.00         10.98         0.00         0.00
    132.9       10.81            0.00         10.81         0.00         0.00
    122.1       10.63            0.00         10.63         0.00         0.00
    111.4       10.44            0.00         10.44         0.00         0.00
    100.7       10.23            0.00         10.23         0.00         0.00
     90.0       10.00            0.00         10.00         0.00         0.00
     79.3        9.75            0.00          9.75         0.00         0.00
     68.6        9.47            0.00          9.47         0.00         0.00
     57.9        9.15            0.00          9.15         0.00         0.00
     47.1        8.79            0.00          8.79         0.00         0.00
     36.4        8.35            0.00          8.35         0.00         0.00
     25.7        7.78            0.00          7.78         0.00         0.00
     15.0        6.99            0.00          6.99         0.00         0.00


Harvested Random Seeds after Generation of the Random Numbers:

     42335007 K1
            0 K2


Scaling statistics from the hub grid point:

  Component  Target Sigma (m/s)  Simulated Sigma (m/s)  Scaling Factor
  ---------  ------------------  ---------------------  --------------
     u'             2.096                2.060                1.017
     v'             1.677                1.638                1.024
     w'             1.048                1.026                1.021


Hub-Height Simulated Turbulence Statistical Summary:

   Type of Wind        Min (m/s)   Mean (m/s)    Max (m/s)  Sigma (m/s)       TI (%)
   ----------------    ---------   ----------    ---------  -----------       ------
   Longitudinal (u)         4.38        10.00        16.19        2.096       20.960
   Lateral (v)             -4.88         0.00         5.53        1.677       16.768
   Vertical (w)            -4.05         0.00         3.57        1.048       10.480
   U component              4.38        10.00        16.19        2.096       20.960
   V component             -4.88         0.00         5.53        1.677       16.768
   W component             -4.05         0.00         3.57        1.048       10.480
   Horizontal (U&V)         4.63        10.14        16.19        2.091       20.618
   Total                    4.66        10.20        16.22        2.082       20.420

                       Min Reynolds     Mean Reynolds    Max Reynolds    Correlation
   Product             Stress (m/s)^2   Stress (m/s)^2   Stress (m/s)^2  Coefficient
   ----------------    --------------   --------------   --------------  -----------
   u'w'                    -12.010            -0.056            10.880        -0.026
   u'v'                    -19.290            -0.728            16.128        -0.207
   v'w'                     -8.881             0.108            10.704         0.061


   Friction Velocity (Ustar)  =      0.238 m/s
   Maximum Instantaneous TKE  =     19.585 (m/s)^2
   Maximum Instantaneous CTKE =     10.566 (m/s)^2


Grid Point Variance Summary:

   Y-coord  -75.00  -64.29  -53.57  -42.86  -32.14  -21.43  -10.71    0.00   10.71   21.43   32.14   42.86   53.57   64.29   75.00

   Height   Standard deviation at grid points for the u component:
   165.00    2.412   2.364   2.183   2.024   1.948   2.069   1.940   1.929   2.043   2.061   2.132   2.034   2.117   2.117   2.099
   154.29    2.372   2.264   2.103   1.807   1.724   1.832   1.862   1.955   1.884   1.925   2.257   2.313   2.214   2.153   2.157
   143.57    2.323   2.304   2.006   1.715   1.790   1.842   1.879   1.980   2.024   2.132   2.297   2.487   2.201   2.182   2.124
   132.86    2.208   2.025   1.974   1.931   1.949   2.028   2.043   2.143   2.098   2.170   2.429   2.523   2.280   2.247   2.286
   122.14    2.010   1.875   1.843   1.943   2.024   2.097   1.959   2.077   2.252   2.370   2.455   2.274   2.407   2.340   2.392
   111.43    2.036   2.070   1.955   1.899   2.056   2.068   1.917   2.019   2.172   2.432   2.556   2.292   2.398   2.395   2.364
   100.71    1.995   2.104   1.919   1.987   2.063   2.073   2.046   2.028   2.127   2.232   2.300   2.274   2.126   2.181   2.155
    90.00    2.022   2.011   2.166   2.046   2.038   1.900   1.945   2.096   2.122   2.117   2.033   1.946   1.946   2.034   2.109
    79.29    2.047   1.987   2.120   2.065   2.149   2.112   1.974   2.028   2.103   1.899   1.812   1.824   1.949   2.117   2.032
    68.57    1.941   1.961   1.979   2.065   2.050   2.149   2.002   1.935   2.021   1.864   1.936   1.847   1.846   1.994   2.072
    57.86    1.827   1.946   1.907   2.055   1.995   2.033   1.894   2.035   1.935   1.971   1.892   1.936   1.969   2.085   1.977
    47.14    1.772   1.888   1.971   1.938   1.937   2.051   2.177   2.164   2.092   2.083   2.036   2.125   2.180   1.960   2.034
    36.43    1.950   1.992   1.999   2.141   2.062   2.229   2.171   2.246   2.129   1.995   1.976   2.054   2.129   2.365   2.133
    25.71    1.996   2.141   2.118   2.107   2.043   2.081   1.953   2.125   2.286   2.088   2.092   2.067   2.168   2.365   2.197
    15.00    2.025   1.885   1.967   1.871   2.099   1.986   1.967   2.062   2.171   2.027   2.094   2.163   2.098   2.082   2.320

   Height   Standard deviation at grid points for the v component:
   165.00    1.677   1.677   1.677   1.677   1.677   1.677   1.677   1.677   1.677   1.677   1.677   1.677   1.677   1.677   1.677
   154.29    1.677   1.677   1.677   1.677   1.677   1.677   1.677   1.677   1.677   1.677   1.677   1.677   1.677   1.677   1.677
   143.57    1.677   1.677   1.677   1.677   1.677   1.677   1.677   1.677   1.677   1.677   1.677   1.677   1.677   1.677   1.677
   132.86    1.677   1.677   1.677   1.677   1.677   1.677   1.677   1.677   1.677   1.677   1.677   1.677   1.677   1.677   1.677
   122.14    1.677   1.677   1.677   1.677   1.677   1.677   1.677   1.677   1.677   1.677   1.677   1.677   1.677   1.677   1.677
   111.43    1.677   1.677   1.677   1.677   1.677   1.677   1.677   1.677   1.677   1.677   1.677   1.677   1.677   1.677   1.677
   100.71    1.677   1.677   1.677   1.677   1.677   1.677   1.677   1.677   1.677   1.677   1.677   1.677   1.677   1.677   1.677
    90.00    1.677   1.677   1.677   1.677   1.677   1.677   1.677   1.677   1.677   1.677   1.677   1.677   1.677   1.677   1.677
    79.29    1.677   1.677   1.677   1.677   1.677   1.677   1.677   1.677   1.677   1.677   1.677   1.677   1.677   1.677   1.677
    68.57    1.677   1.677   1.677   1.677   1.677   1.677   1.677   1.677   1.677   1.677   1.677   1.677   1.677   1.677   1.677
    57.86    1.677   1.677   1.677   1.677   1.677   1.677   1.677   1.677   1.677   1.677   1.677   1.677   1.677   1.677   1.677
    47.14    1.677   1.677   1.677   1.677   1.677   1.677   1.677   1.677   1.677   1.677   1.677   1.677   1.677   1.677   1.677
    36.43    1.677   1.677   1.677   1.677   1.677   1.677   1.677   1.677   1.677   1.677   1.677   1.677   1.677   1.677   1.677
    25.71    1.677   1.677   1.677   1.677   1.677   1.677   1.677   1.677   1.677   1.677   1.677   1.677   1.677   1.677   1.677
    15.00    1.677   1.677   1.677   1.677   1.677   1.677   1.677   1.677   1.677   1.677   1.677   1.677   1.677   1.677   1.677

   Height   Standard deviation at grid points for the w component:
   165.00    1.048   1.048   1.048   1.048   1.048   1.048   1.048   1.048   1.048   1.048   1.048   1.048   1.048   1.048   1.048
   154.29    1.048   1.048   1.048   1.048   1.048   1.048   1.048   1.048   1.048   1.048   1.048   1.048   1.048   1.048   1.048
   143.57    1.048   1.048   1.048   1.048   1.048   1.048   1.048   1.048   1.048   1.048   1.048   1.048   1.048   1.048   1.048
   132.86    1.048   1.048   1.048   1.048   1.048   1.048   1.048   1.048   1.048   1.048   1.048   1.048   1.048   1.048   1.048
   122.14    1.048   1.048   1.048   1.048   1.048   1.048   1.048   1.048   1.048   1.048   1.048   1.048   1.048   1.048   1.048
   111.43    1.048   1.048   1.048   1.048   1.048   1.048   1.048   1.048   1.048   1.048   1.048   1.048   1.048   1.048   1.048
   100.71    1.048   1.048   1.048   1.048   1.048   1.048   1.048   1.048   1.048   1.048   1.048   1.048   1.048   1.048   1.048
    90.00    1.048   1.048   1.048   1.048   1.048   1.048   1.048   1.048   1.048   1.048   1.048   1.048   1.048   1.048   1.048
    79.29    1.048   1.048   1.048   1.048   1.048   1.048   1.048   1.048   1.048   1.048   1.048   1.048   1.048   1.048   1.048
    68.57    1.048   1.048   1.048   1.048   1.048   1.048   1.048   1.048   1.048   1.048   1.048   1.048   1.048   1.048   1.048
    57.86    1.048   1.048   1.048   1.048   1.048   1.048   1.048   1.048   1.048   1.048   1.048   1.048   1.048   1.048   1.048
    47.14    1.048   1.048   1.048   1.048   1.048   1.048   1.048   1.048   1.048   1.048   1.048   1.048   1.048   1.048   1.048
    36.43    1.048   1.048   1.048   1.048   1.048   1.048   1.048   1.048   1.048   1.048   1.048   1.048   1.048   1.048   1.048
    25.71    1.048   1.048   1.048   1.048   1.048   1.048   1.048   1.048   1.048   1.048   1.048   1.048   1.048   1.048   1.048
    15.00    1.048   1.048   1.048   1.048   1.048   1.048   1.048   1.048   1.048   1.048   1.048   1.048   1.048   1.048   1.048

   Mean standard deviation across all grid points:
      u component:    2.075 m/s
      v component:    1.677 m/s
      w component:    1.048 m/s


U-component (X) statistics from the hub grid point:

   Mean =  10.0000 m/s
   TI   =  20.9600 %


Normalizing Parameters for Binary Data (approximate statistics):

   UBar  =  10.0000 m/s
   TI(u) =  20.9600 %
   TI(v) =  16.7680 %
   TI(w) =  10.4800 %

   Height Offset =   0.0000 m
   Grid Base     =  15.0000 m

Nyquist frequency of turbulent wind field =        10.000 Hz


Processing complete.  13.229 CPU seconds used.
