
This summary file was generated by TurbSim (v2.00.07a-bjj, 14-Jun-2016) on 27-Jun-2017 at 13:14:53.


Runtime Options:

    500009  Random seed #1
    RANLUX  Type of random number generator
         F  Output binary HH turbulence parameters?
         F  Output formatted turbulence parameters?
         F  Output AeroDyn HH files?
         T  Output AeroDyn FF files?
         F  Output BLADED FF files?
         F  Output tower data?
         F  Output formatted FF files?
         F  Output coherent turbulence time step file?
         T  Clockwise rotation when looking downwind?
 0 -  NONE  IEC turbulence models scaled to exact specified standard deviation


Turbine/Model Specifications:

        30  Vertical grid-point matrix dimension
        30  Horizontal grid-point matrix dimension
     0.050  Time step [seconds]
   630.000  Analysis time [seconds]
   630.000  Usable output time [seconds]
    90.000  Hub height [m]
   138.000  Grid height [m]
   138.000  Grid width [m]
     0.000  Vertical flow angle [degrees]
     0.000  Horizontal flow angle [degrees]


Meteorological Boundary Conditions:

    USRINP  Uniform user-input spectral model
       N/A  IEC standard
       N/A  IEC turbulence characteristic
       N/A  IEC turbulence type
       N/A  IEC Extreme Turbulence Model (ETM) "c" parameter [m/s]
       USR  Wind profile type
    90.000  Reference height [m]
       N/A  Reference wind speed [m/s]
       N/A  Jet height [m]
       N/A  Power law exponent
     0.030  Surface roughness length [m]


Non-IEC Meteorological Boundary Conditions:

    45.000  Site latitude [degrees]
     0.000  Gradient Richardson number
     0.600  Friction or shear velocity [m/s]
       N/A  Mixing layer depth [m]
    -0.850  Mean hub u'w' Reynolds stress
     0.150  Mean hub u'v' Reynolds stress
    -0.100  Mean hub v'w' Reynolds stress


Spatial Coherence Models:

   GENERAL  u-component coherence model
   GENERAL  v-component coherence model
   GENERAL  w-component coherence model
(   13.750, 0.400E-01)  u-component coherence parameters
(    9.850, 0.150E-02)  v-component coherence parameters
(    9.500, 0.300E-02)  w-component coherence parameters
     0.500  Coherence exponent


User-Defined Profiles:

  Height   Wind Speed   Horizontal Angle
   (m)        (m/s)          (deg)      
  ------   ----------   ----------------
  140.00      13.40          15.90
  130.00      13.20          12.70
  120.00      12.90           9.50
  110.00      12.60           6.30
  100.00      12.30           3.20
   90.00      12.00           0.00
   80.00      11.70         356.80
   70.00      11.30         353.70
   60.00      10.80         350.50
   50.00      10.40         347.30
   40.00       9.80         344.10
   30.00       9.10         341.00
   20.00       8.20         337.80
   10.00       6.90         334.60
    0.00       0.00         331.40


You have requested that the following file(s) be generated:

   test01.bts (AeroDyn/TurbSim full-field wind file)


Turbulence Simulation Scaling Parameter Summary:

   Turbulence model used                            =  Uniform user-input
   Gradient Richardson number                       =    0.000
   Monin-Obukhov (M-O) z/L parameter                =    0.000
   Monin-Obukhov (M-O) length scale                 =  Infinite
   Mean wind speed at hub height                    =   12.000 m/s

   Wind profile type                                =  Linear interpolation of user-defined profile
   Equivalent power law exponent across rotor disk  =    0.237
   Mean shear across rotor disk                     =    0.037 (m/s)/m
   Assumed rotor diameter                           =  138.000 m
   Surface roughness length                         =    0.030 m

   Nyquist frequency of turbulent wind field        =   10.000 Hz

   Number of time steps in the FFT                  =    12600
   Number of time steps output                      =    12600
   Number of points simulated                       =      901


Mean Flow Angles:

   Vertical   =   0.0 degrees
   Horizontal =   0.0 degrees

Mean Wind Speed Profile:

   Height    Wind Speed   Horizontal Angle  Vertical Angle  U-comp (X)   V-comp (Y)   W-comp (Z)
