
These predictions were generated by FAST (v7.02.00d-bjj, 20-Feb-2013) on 29-Jan-2014 at 15:45:43.
The aerodynamic calculations were made by AeroDyn (v13.00.02a-bjj, 20-Feb-2013).

 NREL 5.0 MW Baseline Wind Turbine for Use in Offshore Analysis.

Time	WindVzi	WindVyi	WindVxi	IPDefl1	OoPDefl1	TwstDefl1	BldPitch1	TeetDefl	GenSpeed	RotSpeed	Azimuth	PtfmRDyi	TTDspTwst	PtfmTDxi	PtfmRDxi	TTDspSS	TTDspFA	PtfmTDyi	WaveElev	GenPwr	GenTq
(s)	(m/s)	(m/s)	(m/s)	(m)	(m)	(deg)	(deg)	INVALID	(rpm)	(rpm)	(deg)	(deg)	(deg)	(m)	(deg)	(m)	(m)	(m)	INVALID	(kW)	(kN·m)
