
These predictions were generated by FAST (v7.02.00d-bjj, 20-Feb-2013) on 29-Jan-2014 at 15:50:02.
The aerodynamic calculations were made by AeroDyn (v13.00.02a-bjj, 20-Feb-2013).

 NREL 5.0 MW Baseline Wind Turbine for Use in Offshore Analysis.

Time	WindVzi	WindVyi	WindVxi	IPDefl1	OoPDefl1	TwstDefl1	BldPitch1	TeetDefl	GenSpeed	RotSpeed	Azimuth	PtfmRDyi	TTDspTwst	PtfmTDxi	PtfmRDxi	TTDspSS	TTDspFA	PtfmTDyi	WaveElev	GenPwr	GenTq
(s)	(m/s)	(m/s)	(m/s)	(m)	(m)	(deg)	(deg)	INVALID	(rpm)	(rpm)	(deg)	(deg)	(deg)	(m)	(deg)	(m)	(m)	(m)	INVALID	(kW)	(kN·m)
  30.000	 1.270E+00	-7.051E-03	 2.020E+01	-1.283E+00	 1.863E+00	 0.000E+00	 1.593E+01	 0.000E+00	 1.156E+03	 1.191E+01	 9.212E+01	 0.000E+00	 0.000E+00	 0.000E+00	 0.000E+00	-9.119E-02	 2.427E-01	 0.000E+00	 0.000E+00	 5.014E+03	 4.389E+01
  30.013	 1.300E+00	 5.618E-02	 2.012E+01	-1.274E+00	 1.860E+00	 0.000E+00	 1.593E+01	 0.000E+00	 1.156E+03	 1.192E+01	 9.301E+01	 0.000E+00	 0.000E+00	 0.000E+00	 0.000E+00	-9.040E-02	 2.424E-01	 0.000E+00	 0.000E+00	 5.016E+03	 4.389E+01
  30.025	 1.330E+00	 1.189E-01	 2.003E+01	-1.264E+00	 1.858E+00	 0.000E+00	 1.593E+01	 0.000E+00	 1.156E+03	 1.192E+01	 9.391E+01	 0.000E+00	 0.000E+00	 0.000E+00	 0.000E+00	-8.959E-02	 2.422E-01	 0.000E+00	 0.000E+00	 5.018E+03	 4.389E+01
  30.038	 1.360E+00	 1.811E-01	 1.995E+01	-1.256E+00	 1.856E+00	 0.000E+00	 1.593E+01	 0.000E+00	 1.157E+03	 1.192E+01	 9.480E+01	 0.000E+00	 0.000E+00	 0.000E+00	 0.000E+00	-8.878E-02	 2.420E-01	 0.000E+00	 0.000E+00	 5.019E+03	 4.389E+01
  30.050	 1.390E+00	 2.428E-01	 1.987E+01	-1.248E+00	 1.855E+00	 0.000E+00	 1.593E+01	 0.000E+00	 1.157E+03	 1.192E+01	 9.569E+01	 0.000E+00	 0.000E+00	 0.000E+00	 0.000E+00	-8.795E-02	 2.418E-01	 0.000E+00	 0.000E+00	 5.021E+03	 4.388E+01
  30.062	 1.347E+00	 3.563E-01	 1.986E+01	-1.240E+00	 1.855E+00	 0.000E+00	 1.592E+01	 0.000E+00	 1.158E+03	 1.192E+01	 9.659E+01	 0.000E+00	 0.000E+00	 0.000E+00	 0.000E+00	-8.712E-02	 2.416E-01	 0.000E+00	 0.000E+00	 5.022E+03	 4.388E+01
  30.075	 1.305E+00	 4.698E-01	 1.986E+01	-1.233E+00	 1.855E+00	 0.000E+00	 1.592E+01	 0.000E+00	 1.158E+03	 1.192E+01	 9.748E+01	 0.000E+00	 0.000E+00	 0.000E+00	 0.000E+00	-8.628E-02	 2.415E-01	 0.000E+00	 0.000E+00	 5.023E+03	 4.388E+01
  30.087	 1.263E+00	 5.832E-01	 1.985E+01	-1.226E+00	 1.855E+00	 0.000E+00	 1.592E+01	 0.000E+00	 1.158E+03	 1.192E+01	 9.838E+01	 0.000E+00	 0.000E+00	 0.000E+00	 0.000E+00	-8.542E-02	 2.414E-01	 0.000E+00	 0.000E+00	 5.024E+03	 4.387E+01
  30.100	 1.220E+00	 6.966E-01	 1.985E+01	-1.219E+00	 1.856E+00	 0.000E+00	 1.592E+01	 0.000E+00	 1.159E+03	 1.193E+01	 9.927E+01	 0.000E+00	 0.000E+00	 0.000E+00	 0.000E+00	-8.456E-02	 2.414E-01	 0.000E+00	 0.000E+00	 5.025E+03	 4.387E+01
  30.113	 1.032E+00	 5.055E-01	 1.980E+01	-1.213E+00	 1.857E+00	 0.000E+00	 1.592E+01	 0.000E+00	 1.159E+03	 1.193E+01	 1.002E+02	 0.000E+00	 0.000E+00	 0.000E+00	 0.000E+00	-8.369E-02	 2.414E-01	 0.000E+00	 0.000E+00	 5.025E+03	 4.386E+01
  30.125	 8.450E-01	 3.155E-01	 1.975E+01	-1.207E+00	 1.858E+00	 0.000E+00	 1.592E+01	 0.000E+00	 1.159E+03	 1.193E+01	 1.011E+02	 0.000E+00	 0.000E+00	 0.000E+00	 0.000E+00	-8.281E-02	 2.414E-01	 0.000E+00	 0.000E+00	 5.025E+03	 4.386E+01
  30.138	 6.575E-01	 1.264E-01	 1.970E+01	-1.201E+00	 1.860E+00	 0.000E+00	 1.592E+01	 0.000E+00	 1.159E+03	 1.194E+01	 1.020E+02	 0.000E+00	 0.000E+00	 0.000E+00	 0.000E+00	-8.192E-02	 2.415E-01	 0.000E+00	 0.000E+00	 5.025E+03	 4.385E+01
  30.150	 4.700E-01	-6.173E-02	 1.965E+01	-1.195E+00	 1.862E+00	 0.000E+00	 1.592E+01	 0.000E+00	 1.159E+03	 1.194E+01	 1.029E+02	 0.000E+00	 0.000E+00	 0.000E+00	 0.000E+00	-8.101E-02	 2.416E-01	 0.000E+00	 0.000E+00	 5.025E+03	 4.385E+01
  30.163	 5.650E-01	 1.201E-02	 1.966E+01	-1.189E+00	 1.864E+00	 0.000E+00	 1.592E+01	 0.000E+00	 1.159E+03	 1.195E+01	 1.037E+02	 0.000E+00	 0.000E+00	 0.000E+00	 0.000E+00	-8.010E-02	 2.417E-01	 0.000E+00	 0.000E+00	 5.025E+03	 4.385E+01
  30.175	 6.600E-01	 8.585E-02	 1.967E+01	-1.183E+00	 1.865E+00	 0.000E+00	 1.592E+01	 0.000E+00	 1.159E+03	 1.195E+01	 1.046E+02	 0.000E+00	 0.000E+00	 0.000E+00	 0.000E+00	-7.918E-02	 2.419E-01	 0.000E+00	 0.000E+00	 5.025E+03	 4.384E+01
  30.188	 7.550E-01	 1.598E-01	 1.969E+01	-1.177E+00	 1.867E+00	 0.000E+00	 1.592E+01	 0.000E+00	 1.159E+03	 1.196E+01	 1.055E+02	 0.000E+00	 0.000E+00	 0.000E+00	 0.000E+00	-7.825E-02	 2.421E-01	 0.000E+00	 0.000E+00	 5.025E+03	 4.384E+01
  30.200	 8.500E-01	 2.338E-01	 1.970E+01	-1.171E+00	 1.867E+00	 0.000E+00	 1.593E+01	 0.000E+00	 1.160E+03	 1.196E+01	 1.064E+02	 0.000E+00	 0.000E+00	 0.000E+00	 0.000E+00	-7.731E-02	 2.424E-01	 0.000E+00	 0.000E+00	 5.025E+03	 4.383E+01
  30.212	 7.750E-01	 1.999E-01	 1.975E+01	-1.165E+00	 1.868E+00	 0.000E+00	 1.593E+01	 0.000E+00	 1.160E+03	 1.196E+01	 1.073E+02	 0.000E+00	 0.000E+00	 0.000E+00	 0.000E+00	-7.637E-02	 2.427E-01	 0.000E+00	 0.000E+00	 5.025E+03	 4.383E+01
  30.225	 7.000E-01	 1.658E-01	 1.979E+01	-1.160E+00	 1.867E+00	 0.000E+00	 1.593E+01	 0.000E+00	 1.160E+03	 1.196E+01	 1.082E+02	 0.000E+00	 0.000E+00	 0.000E+00	 0.000E+00	-7.542E-02	 2.430E-01	 0.000E+00	 0.000E+00	 5.025E+03	 4.382E+01
  30.238	 6.250E-01	 1.316E-01	 1.984E+01	-1.154E+00	 1.867E+00	 0.000E+00	 1.593E+01	 0.000E+00	 1.160E+03	 1.196E+01	 1.091E+02	 0.000E+00	 0.000E+00	 0.000E+00	 0.000E+00	-7.446E-02	 2.434E-01	 0.000E+00	 0.000E+00	 5.025E+03	 4.382E+01
  30.250	 5.500E-01	 9.720E-02	 1.989E+01	-1.149E+00	 1.866E+00	 0.000E+00	 1.593E+01	 0.000E+00	 1.160E+03	 1.196E+01	 1.100E+02	 0.000E+00	 0.000E+00	 0.000E+00	 0.000E+00	-7.351E-02	 2.438E-01	 0.000E+00	 0.000E+00	 5.025E+03	 4.382E+01
  30.263	 6.125E-01	-1.738E-02	 1.991E+01	-1.144E+00	 1.866E+00	 0.000E+00	 1.593E+01	 0.000E+00	 1.160E+03	 1.196E+01	 1.109E+02	 0.000E+00	 0.000E+00	 0.000E+00	 0.000E+00	-7.254E-02	 2.443E-01	 0.000E+00	 0.000E+00	 5.025E+03	 4.381E+01
  30.275	 6.750E-01	-1.322E-01	 1.993E+01	-1.140E+00	 1.865E+00	 0.000E+00	 1.593E+01	 0.000E+00	 1.160E+03	 1.196E+01	 1.118E+02	 0.000E+00	 0.000E+00	 0.000E+00	 0.000E+00	-7.158E-02	 2.448E-01	 0.000E+00	 0.000E+00	 5.025E+03	 4.381E+01
  30.288	 7.375E-01	-2.472E-01	 1.995E+01	-1.135E+00	 1.863E+00	 0.000E+00	 1.593E+01	 0.000E+00	 1.161E+03	 1.196E+01	 1.127E+02	 0.000E+00	 0.000E+00	 0.000E+00	 0.000E+00	-7.061E-02	 2.453E-01	 0.000E+00	 0.000E+00	 5.025E+03	 4.380E+01
  30.300	 8.000E-01	-3.624E-01	 1.997E+01	-1.131E+00	 1.861E+00	 0.000E+00	 1.593E+01	 0.000E+00	 1.161E+03	 1.197E+01	 1.136E+02	 0.000E+00	 0.000E+00	 0.000E+00	 0.000E+00	-6.964E-02	 2.459E-01	 0.000E+00	 0.000E+00	 5.026E+03	 4.380E+01
  30.312	 7.275E-01	-1.351E-01	 2.010E+01	-1.128E+00	 1.858E+00	 0.000E+00	 1.593E+01	 0.000E+00	 1.161E+03	 1.197E+01	 1.145E+02	 0.000E+00	 0.000E+00	 0.000E+00	 0.000E+00	-6.867E-02	 2.465E-01	 0.000E+00	 0.000E+00	 5.026E+03	 4.380E+01
  30.325	 6.550E-01	 9.540E-02	 2.024E+01	-1.124E+00	 1.855E+00	 0.000E+00	 1.593E+01	 0.000E+00	 1.161E+03	 1.197E+01	 1.154E+02	 0.000E+00	 0.000E+00	 0.000E+00	 0.000E+00	-6.769E-02	 2.472E-01	 0.000E+00	 0.000E+00	 5.026E+03	 4.379E+01
  30.337	 5.825E-01	 3.289E-01	 2.037E+01	-1.121E+00	 1.850E+00	 0.000E+00	 1.593E+01	 0.000E+00	 1.161E+03	 1.197E+01	 1.163E+02	 0.000E+00	 0.000E+00	 0.000E+00	 0.000E+00	-6.672E-02	 2.479E-01	 0.000E+00	 0.000E+00	 5.026E+03	 4.379E+01
  30.350	 5.100E-01	 5.655E-01	 2.050E+01	-1.118E+00	 1.846E+00	 0.000E+00	 1.593E+01	 0.000E+00	 1.161E+03	 1.197E+01	 1.172E+02	 0.000E+00	 0.000E+00	 0.000E+00	 0.000E+00	-6.575E-02	 2.487E-01	 0.000E+00	 0.000E+00	 5.026E+03	 4.378E+01
  30.363	 5.900E-01	 5.605E-01	 2.048E+01	-1.115E+00	 1.842E+00	 0.000E+00	 1.593E+01	 0.000E+00	 1.161E+03	 1.198E+01	 1.181E+02	 0.000E+00	 0.000E+00	 0.000E+00	 0.000E+00	-6.478E-02	 2.494E-01	 0.000E+00	 0.000E+00	 5.026E+03	 4.378E+01
  30.375	 6.700E-01	 5.555E-01	 2.046E+01	-1.112E+00	 1.837E+00	 0.000E+00	 1.593E+01	 0.000E+00	 1.162E+03	 1.198E+01	 1.190E+02	 0.000E+00	 0.000E+00	 0.000E+00	 0.000E+00	-6.382E-02	 2.503E-01	 0.000E+00	 0.000E+00	 5.027E+03	 4.377E+01
  30.388	 7.500E-01	 5.505E-01	 2.044E+01	-1.109E+00	 1.833E+00	 0.000E+00	 1.593E+01	 0.000E+00	 1.162E+03	 1.198E+01	 1.199E+02	 0.000E+00	 0.000E+00	 0.000E+00	 0.000E+00	-6.285E-02	 2.511E-01	 0.000E+00	 0.000E+00	 5.027E+03	 4.377E+01
  30.400	 8.300E-01	 5.455E-01	 2.042E+01	-1.106E+00	 1.829E+00	 0.000E+00	 1.593E+01	 0.000E+00	 1.162E+03	 1.199E+01	 1.208E+02	 0.000E+00	 0.000E+00	 0.000E+00	 0.000E+00	-6.189E-02	 2.521E-01	 0.000E+00	 0.000E+00	 5.027E+03	 4.376E+01
  30.413	 8.800E-01	 5.656E-01	 2.047E+01	-1.103E+00	 1.825E+00	 0.000E+00	 1.593E+01	 0.000E+00	 1.162E+03	 1.199E+01	 1.217E+02	 0.000E+00	 0.000E+00	 0.000E+00	 0.000E+00	-6.094E-02	 2.530E-01	 0.000E+00	 0.000E+00	 5.028E+03	 4.376E+01
  30.425	 9.300E-01	 5.858E-01	 2.052E+01	-1.099E+00	 1.821E+00	 0.000E+00	 1.593E+01	 0.000E+00	 1.163E+03	 1.200E+01	 1.226E+02	 0.000E+00	 0.000E+00	 0.000E+00	 0.000E+00	-5.999E-02	 2.540E-01	 0.000E+00	 0.000E+00	 5.028E+03	 4.375E+01
  30.438	 9.800E-01	 6.060E-01	 2.057E+01	-1.096E+00	 1.817E+00	 0.000E+00	 1.593E+01	 0.000E+00	 1.163E+03	 1.200E+01	 1.235E+02	 0.000E+00	 0.000E+00	 0.000E+00	 0.000E+00	-5.904E-02	 2.550E-01	 0.000E+00	 0.000E+00	 5.029E+03	 4.375E+01
  30.450	 1.030E+00	 6.264E-01	 2.062E+01	-1.092E+00	 1.813E+00	 0.000E+00	 1.593E+01	 0.000E+00	 1.163E+03	 1.201E+01	 1.244E+02	 0.000E+00	 0.000E+00	 0.000E+00	 0.000E+00	-5.811E-02	 2.561E-01	 0.000E+00	 0.000E+00	 5.030E+03	 4.374E+01
  30.462	 9.525E-01	 6.588E-01	 2.065E+01	-1.089E+00	 1.809E+00	 0.000E+00	 1.593E+01	 0.000E+00	 1.164E+03	 1.201E+01	 1.253E+02	 0.000E+00	 0.000E+00	 0.000E+00	 0.000E+00	-5.718E-02	 2.572E-01	 0.000E+00	 0.000E+00	 5.031E+03	 4.374E+01
  30.475	 8.750E-01	 6.912E-01	 2.067E+01	-1.085E+00	 1.806E+00	 0.000E+00	 1.593E+01	 0.000E+00	 1.164E+03	 1.202E+01	 1.262E+02	 0.000E+00	 0.000E+00	 0.000E+00	 0.000E+00	-5.627E-02	 2.584E-01	 0.000E+00	 0.000E+00	 5.033E+03	 4.373E+01
  30.488	 7.975E-01	 7.238E-01	 2.070E+01	-1.082E+00	 1.802E+00	 0.000E+00	 1.593E+01	 0.000E+00	 1.165E+03	 1.202E+01	 1.271E+02	 0.000E+00	 0.000E+00	 0.000E+00	 0.000E+00	-5.536E-02	 2.595E-01	 0.000E+00	 0.000E+00	 5.034E+03	 4.373E+01
  30.500	 7.200E-01	 7.564E-01	 2.073E+01	-1.078E+00	 1.799E+00	 0.000E+00	 1.594E+01	 0.000E+00	 1.165E+03	 1.203E+01	 1.280E+02	 0.000E+00	 0.000E+00	 0.000E+00	 0.000E+00	-5.446E-02	 2.608E-01	 0.000E+00	 0.000E+00	 5.036E+03	 4.372E+01
  30.513	 5.000E-01	 6.919E-01	 2.072E+01	-1.074E+00	 1.796E+00	 0.000E+00	 1.594E+01	 0.000E+00	 1.166E+03	 1.203E+01	 1.289E+02	 0.000E+00	 0.000E+00	 0.000E+00	 0.000E+00	-5.358E-02	 2.620E-01	 0.000E+00	 0.000E+00	 5.037E+03	 4.372E+01
  30.525	 2.800E-01	 6.275E-01	 2.072E+01	-1.070E+00	 1.794E+00	 0.000E+00	 1.594E+01	 0.000E+00	 1.166E+03	 1.204E+01	 1.298E+02	 0.000E+00	 0.000E+00	 0.000E+00	 0.000E+00	-5.271E-02	 2.634E-01	 0.000E+00	 0.000E+00	 5.039E+03	 4.371E+01
  30.538	 5.998E-02	 5.631E-01	 2.071E+01	-1.066E+00	 1.791E+00	 0.000E+00	 1.594E+01	 0.000E+00	 1.167E+03	 1.204E+01	 1.307E+02	 0.000E+00	 0.000E+00	 0.000E+00	 0.000E+00	-5.185E-02	 2.647E-01	 0.000E+00	 0.000E+00	 5.041E+03	 4.370E+01
  30.550	-1.600E-01	 4.988E-01	 2.070E+01	-1.061E+00	 1.789E+00	 0.000E+00	 1.594E+01	 0.000E+00	 1.167E+03	 1.204E+01	 1.316E+02	 0.000E+00	 0.000E+00	 0.000E+00	 0.000E+00	-5.101E-02	 2.661E-01	 0.000E+00	 0.000E+00	 5.043E+03	 4.370E+01
  30.562	-1.425E-01	 4.614E-01	 2.057E+01	-1.057E+00	 1.787E+00	 0.000E+00	 1.594E+01	 0.000E+00	 1.168E+03	 1.205E+01	 1.325E+02	 0.000E+00	 0.000E+00	 0.000E+00	 0.000E+00	-5.019E-02	 2.675E-01	 0.000E+00	 0.000E+00	 5.045E+03	 4.369E+01
  30.575	-1.250E-01	 4.245E-01	 2.044E+01	-1.052E+00	 1.785E+00	 0.000E+00	 1.595E+01	 0.000E+00	 1.169E+03	 1.205E+01	 1.334E+02	 0.000E+00	 0.000E+00	 0.000E+00	 0.000E+00	-4.938E-02	 2.690E-01	 0.000E+00	 0.000E+00	 5.047E+03	 4.368E+01
  30.587	-1.075E-01	 3.880E-01	 2.030E+01	-1.046E+00	 1.784E+00	 0.000E+00	 1.595E+01	 0.000E+00	 1.170E+03	 1.206E+01	 1.343E+02	 0.000E+00	 0.000E+00	 0.000E+00	 0.000E+00	-4.859E-02	 2.705E-01	 0.000E+00	 0.000E+00	 5.049E+03	 4.367E+01
  30.600	-9.000E-02	 3.520E-01	 2.017E+01	-1.040E+00	 1.782E+00	 0.000E+00	 1.595E+01	 0.000E+00	 1.170E+03	 1.206E+01	 1.352E+02	 0.000E+00	 0.000E+00	 0.000E+00	 0.000E+00	-4.783E-02	 2.720E-01	 0.000E+00	 0.000E+00	 5.051E+03	 4.367E+01
  30.613	-1.125E-01	 4.320E-01	 2.012E+01	-1.034E+00	 1.781E+00	 0.000E+00	 1.595E+01	 0.000E+00	 1.171E+03	 1.207E+01	 1.361E+02	 0.000E+00	 0.000E+00	 0.000E+00	 0.000E+00	-4.708E-02	 2.736E-01	 0.000E+00	 0.000E+00	 5.053E+03	 4.366E+01
  30.625	-1.350E-01	 5.115E-01	 2.007E+01	-1.028E+00	 1.779E+00	 0.000E+00	 1.596E+01	 0.000E+00	 1.172E+03	 1.207E+01	 1.370E+02	 0.000E+00	 0.000E+00	 0.000E+00	 0.000E+00	-4.635E-02	 2.752E-01	 0.000E+00	 0.000E+00	 5.055E+03	 4.365E+01
  30.638	-1.575E-01	 5.907E-01	 2.002E+01	-1.021E+00	 1.777E+00	 0.000E+00	 1.596E+01	 0.000E+00	 1.172E+03	 1.207E+01	 1.379E+02	 0.000E+00	 0.000E+00	 0.000E+00	 0.000E+00	-4.564E-02	 2.768E-01	 0.000E+00	 0.000E+00	 5.057E+03	 4.364E+01
  30.650	-1.800E-01	 6.694E-01	 1.997E+01	-1.014E+00	 1.775E+00	 0.000E+00	 1.596E+01	 0.000E+00	 1.173E+03	 1.207E+01	 1.389E+02	 0.000E+00	 0.000E+00	 0.000E+00	 0.000E+00	-4.495E-02	 2.785E-01	 0.000E+00	 0.000E+00	 5.058E+03	 4.363E+01
  30.663	-1.075E-01	 8.286E-01	 2.013E+01	-1.006E+00	 1.772E+00	 0.000E+00	 1.597E+01	 0.000E+00	 1.173E+03	 1.208E+01	 1.398E+02	 0.000E+00	 0.000E+00	 0.000E+00	 0.000E+00	-4.429E-02	 2.802E-01	 0.000E+00	 0.000E+00	 5.059E+03	 4.362E+01
  30.675	-3.499E-02	 9.901E-01	 2.028E+01	-9.980E-01	 1.770E+00	 0.000E+00	 1.597E+01	 0.000E+00	 1.174E+03	 1.208E+01	 1.407E+02	 0.000E+00	 0.000E+00	 0.000E+00	 0.000E+00	-4.364E-02	 2.819E-01	 0.000E+00	 0.000E+00	 5.060E+03	 4.361E+01
  30.688	 3.750E-02	 1.154E+00	 2.043E+01	-9.896E-01	 1.766E+00	 0.000E+00	 1.598E+01	 0.000E+00	 1.174E+03	 1.209E+01	 1.416E+02	 0.000E+00	 0.000E+00	 0.000E+00	 0.000E+00	-4.302E-02	 2.836E-01	 0.000E+00	 0.000E+00	 5.061E+03	 4.360E+01
  30.700	 1.100E-01	 1.321E+00	 2.059E+01	-9.804E-01	 1.763E+00	 0.000E+00	 1.598E+01	 0.000E+00	 1.175E+03	 1.209E+01	 1.425E+02	 0.000E+00	 0.000E+00	 0.000E+00	 0.000E+00	-4.242E-02	 2.854E-01	 0.000E+00	 0.000E+00	 5.062E+03	 4.359E+01
  30.712	-1.749E-02	 1.318E+00	 2.051E+01	-9.706E-01	 1.759E+00	 0.000E+00	 1.598E+01	 0.000E+00	 1.175E+03	 1.210E+01	 1.434E+02	 0.000E+00	 0.000E+00	 0.000E+00	 0.000E+00	-4.183E-02	 2.872E-01	 0.000E+00	 0.000E+00	 5.062E+03	 4.358E+01
  30.725	-1.450E-01	 1.316E+00	 2.044E+01	-9.597E-01	 1.756E+00	 0.000E+00	 1.599E+01	 0.000E+00	 1.175E+03	 1.211E+01	 1.443E+02	 0.000E+00	 0.000E+00	 0.000E+00	 0.000E+00	-4.127E-02	 2.890E-01	 0.000E+00	 0.000E+00	 5.062E+03	 4.357E+01
  30.738	-2.725E-01	 1.314E+00	 2.036E+01	-9.480E-01	 1.752E+00	 0.000E+00	 1.599E+01	 0.000E+00	 1.176E+03	 1.211E+01	 1.452E+02	 0.000E+00	 0.000E+00	 0.000E+00	 0.000E+00	-4.072E-02	 2.908E-01	 0.000E+00	 0.000E+00	 5.062E+03	 4.356E+01
  30.750	-4.000E-01	 1.312E+00	 2.029E+01	-9.349E-01	 1.747E+00	 0.000E+00	 1.600E+01	 0.000E+00	 1.176E+03	 1.212E+01	 1.461E+02	 0.000E+00	 0.000E+00	 0.000E+00	 0.000E+00	-4.020E-02	 2.927E-01	 0.000E+00	 0.000E+00	 5.062E+03	 4.355E+01
  30.763	-4.450E-01	 1.311E+00	 2.041E+01	-9.208E-01	 1.743E+00	 0.000E+00	 1.600E+01	 0.000E+00	 1.176E+03	 1.213E+01	 1.470E+02	 0.000E+00	 0.000E+00	 0.000E+00	 0.000E+00	-3.969E-02	 2.946E-01	 0.000E+00	 0.000E+00	 5.062E+03	 4.354E+01
  30.775	-4.900E-01	 1.309E+00	 2.052E+01	-9.059E-01	 1.738E+00	 0.000E+00	 1.600E+01	 0.000E+00	 1.177E+03	 1.214E+01	 1.479E+02	 0.000E+00	 0.000E+00	 0.000E+00	 0.000E+00	-3.921E-02	 2.965E-01	 0.000E+00	 0.000E+00	 5.062E+03	 4.353E+01
  30.788	-5.350E-01	 1.308E+00	 2.064E+01	-8.900E-01	 1.733E+00	 0.000E+00	 1.601E+01	 0.000E+00	 1.177E+03	 1.214E+01	 1.488E+02	 0.000E+00	 0.000E+00	 0.000E+00	 0.000E+00	-3.874E-02	 2.984E-01	 0.000E+00	 0.000E+00	 5.063E+03	 4.351E+01
  30.800	-5.800E-01	 1.306E+00	 2.076E+01	-8.740E-01	 1.728E+00	 0.000E+00	 1.601E+01	 0.000E+00	 1.177E+03	 1.215E+01	 1.497E+02	 0.000E+00	 0.000E+00	 0.000E+00	 0.000E+00	-3.829E-02	 3.003E-01	 0.000E+00	 0.000E+00	 5.063E+03	 4.350E+01
  30.812	-6.000E-01	 1.129E+00	 2.083E+01	-8.575E-01	 1.722E+00	 0.000E+00	 1.602E+01	 0.000E+00	 1.178E+03	 1.215E+01	 1.507E+02	 0.000E+00	 0.000E+00	 0.000E+00	 0.000E+00	-3.787E-02	 3.023E-01	 0.000E+00	 0.000E+00	 5.064E+03	 4.349E+01
  30.825	-6.200E-01	 9.513E-01	 2.091E+01	-8.407E-01	 1.716E+00	 0.000E+00	 1.602E+01	 0.000E+00	 1.178E+03	 1.215E+01	 1.516E+02	 0.000E+00	 0.000E+00	 0.000E+00	 0.000E+00	-3.746E-02	 3.043E-01	 0.000E+00	 0.000E+00	 5.064E+03	 4.348E+01
  30.837	-6.400E-01	 7.721E-01	 2.098E+01	-8.237E-01	 1.710E+00	 0.000E+00	 1.602E+01	 0.000E+00	 1.179E+03	 1.216E+01	 1.525E+02	 0.000E+00	 0.000E+00	 0.000E+00	 0.000E+00	-3.707E-02	 3.063E-01	 0.000E+00	 0.000E+00	 5.065E+03	 4.347E+01
  30.850	-6.600E-01	 5.917E-01	 2.105E+01	-8.059E-01	 1.705E+00	 0.000E+00	 1.603E+01	 0.000E+00	 1.179E+03	 1.216E+01	 1.534E+02	 0.000E+00	 0.000E+00	 0.000E+00	 0.000E+00	-3.670E-02	 3.083E-01	 0.000E+00	 0.000E+00	 5.066E+03	 4.346E+01
  30.863	-6.875E-01	 5.257E-01	 2.091E+01	-7.880E-01	 1.699E+00	 0.000E+00	 1.603E+01	 0.000E+00	 1.180E+03	 1.217E+01	 1.543E+02	 0.000E+00	 0.000E+00	 0.000E+00	 0.000E+00	-3.635E-02	 3.103E-01	 0.000E+00	 0.000E+00	 5.066E+03	 4.345E+01
  30.875	-7.150E-01	 4.605E-01	 2.077E+01	-7.697E-01	 1.693E+00	 0.000E+00	 1.604E+01	 0.000E+00	 1.180E+03	 1.217E+01	 1.552E+02	 0.000E+00	 0.000E+00	 0.000E+00	 0.000E+00	-3.601E-02	 3.123E-01	 0.000E+00	 0.000E+00	 5.067E+03	 4.344E+01
  30.888	-7.425E-01	 3.961E-01	 2.063E+01	-7.511E-01	 1.688E+00	 0.000E+00	 1.604E+01	 0.000E+00	 1.181E+03	 1.217E+01	 1.561E+02	 0.000E+00	 0.000E+00	 0.000E+00	 0.000E+00	-3.570E-02	 3.144E-01	 0.000E+00	 0.000E+00	 5.068E+03	 4.343E+01
  30.900	-7.700E-01	 3.326E-01	 2.049E+01	-7.323E-01	 1.682E+00	 0.000E+00	 1.605E+01	 0.000E+00	 1.181E+03	 1.218E+01	 1.570E+02	 0.000E+00	 0.000E+00	 0.000E+00	 0.000E+00	-3.541E-02	 3.164E-01	 0.000E+00	 0.000E+00	 5.069E+03	 4.342E+01
  30.913	-8.250E-01	 3.490E-01	 2.045E+01	-7.133E-01	 1.676E+00	 0.000E+00	 1.605E+01	 0.000E+00	 1.182E+03	 1.218E+01	 1.580E+02	 0.000E+00	 0.000E+00	 0.000E+00	 0.000E+00	-3.513E-02	 3.185E-01	 0.000E+00	 0.000E+00	 5.070E+03	 4.340E+01
  30.925	-8.800E-01	 3.654E-01	 2.042E+01	-6.944E-01	 1.671E+00	 0.000E+00	 1.606E+01	 0.000E+00	 1.182E+03	 1.218E+01	 1.589E+02	 0.000E+00	 0.000E+00	 0.000E+00	 0.000E+00	-3.487E-02	 3.206E-01	 0.000E+00	 0.000E+00	 5.071E+03	 4.339E+01
  30.938	-9.350E-01	 3.817E-01	 2.039E+01	-6.753E-01	 1.665E+00	 0.000E+00	 1.606E+01	 0.000E+00	 1.183E+03	 1.218E+01	 1.598E+02	 0.000E+00	 0.000E+00	 0.000E+00	 0.000E+00	-3.464E-02	 3.227E-01	 0.000E+00	 0.000E+00	 5.071E+03	 4.338E+01
  30.950	-9.900E-01	 3.980E-01	 2.036E+01	-6.567E-01	 1.659E+00	 0.000E+00	 1.607E+01	 0.000E+00	 1.183E+03	 1.218E+01	 1.607E+02	 0.000E+00	 0.000E+00	 0.000E+00	 0.000E+00	-3.441E-02	 3.248E-01	 0.000E+00	 0.000E+00	 5.072E+03	 4.337E+01
  30.962	-8.375E-01	 3.286E-01	 2.041E+01	-6.381E-01	 1.653E+00	 0.000E+00	 1.607E+01	 0.000E+00	 1.183E+03	 1.218E+01	 1.616E+02	 0.000E+00	 0.000E+00	 0.000E+00	 0.000E+00	-3.421E-02	 3.270E-01	 0.000E+00	 0.000E+00	 5.072E+03	 4.336E+01
  30.975	-6.850E-01	 2.589E-01	 2.046E+01	-6.195E-01	 1.647E+00	 0.000E+00	 1.608E+01	 0.000E+00	 1.184E+03	 1.219E+01	 1.625E+02	 0.000E+00	 0.000E+00	 0.000E+00	 0.000E+00	-3.402E-02	 3.291E-01	 0.000E+00	 0.000E+00	 5.073E+03	 4.334E+01
  30.988	-5.325E-01	 1.889E-01	 2.052E+01	-6.009E-01	 1.641E+00	 0.000E+00	 1.609E+01	 0.000E+00	 1.184E+03	 1.219E+01	 1.634E+02	 0.000E+00	 0.000E+00	 0.000E+00	 0.000E+00	-3.385E-02	 3.312E-01	 0.000E+00	 0.000E+00	 5.073E+03	 4.333E+01
  31.000	-3.800E-01	 1.185E-01	 2.057E+01	-5.820E-01	 1.635E+00	 0.000E+00	 1.609E+01	 0.000E+00	 1.184E+03	 1.220E+01	 1.644E+02	 0.000E+00	 0.000E+00	 0.000E+00	 0.000E+00	-3.369E-02	 3.334E-01	 0.000E+00	 0.000E+00	 5.072E+03	 4.332E+01
  31.013	-5.900E-01	 7.028E-02	 2.065E+01	-5.629E-01	 1.628E+00	 0.000E+00	 1.610E+01	 0.000E+00	 1.185E+03	 1.220E+01	 1.653E+02	 0.000E+00	 0.000E+00	 0.000E+00	 0.000E+00	-3.355E-02	 3.355E-01	 0.000E+00	 0.000E+00	 5.072E+03	 4.331E+01
  31.025	-8.000E-01	 2.171E-02	 2.073E+01	-5.432E-01	 1.622E+00	 0.000E+00	 1.610E+01	 0.000E+00	 1.185E+03	 1.221E+01	 1.662E+02	 0.000E+00	 0.000E+00	 0.000E+00	 0.000E+00	-3.342E-02	 3.377E-01	 0.000E+00	 0.000E+00	 5.072E+03	 4.329E+01
  31.038	-1.010E+00	-2.724E-02	 2.081E+01	-5.232E-01	 1.615E+00	 0.000E+00	 1.611E+01	 0.000E+00	 1.185E+03	 1.222E+01	 1.671E+02	 0.000E+00	 0.000E+00	 0.000E+00	 0.000E+00	-3.330E-02	 3.398E-01	 0.000E+00	 0.000E+00	 5.071E+03	 4.328E+01
  31.050	-1.220E+00	-7.654E-02	 2.089E+01	-5.027E-01	 1.609E+00	 0.000E+00	 1.611E+01	 0.000E+00	 1.185E+03	 1.223E+01	 1.680E+02	 0.000E+00	 0.000E+00	 0.000E+00	 0.000E+00	-3.320E-02	 3.420E-01	 0.000E+00	 0.000E+00	 5.071E+03	 4.327E+01
  31.062	-1.290E+00	 6.231E-02	 2.100E+01	-4.818E-01	 1.603E+00	 0.000E+00	 1.612E+01	 0.000E+00	 1.186E+03	 1.223E+01	 1.689E+02	 0.000E+00	 0.000E+00	 0.000E+00	 0.000E+00	-3.312E-02	 3.441E-01	 0.000E+00	 0.000E+00	 5.071E+03	 4.326E+01
  31.075	-1.360E+00	 2.026E-01	 2.111E+01	-4.605E-01	 1.596E+00	 0.000E+00	 1.612E+01	 0.000E+00	 1.186E+03	 1.224E+01	 1.699E+02	 0.000E+00	 0.000E+00	 0.000E+00	 0.000E+00	-3.305E-02	 3.463E-01	 0.000E+00	 0.000E+00	 5.071E+03	 4.325E+01
  31.087	-1.430E+00	 3.444E-01	 2.122E+01	-4.388E-01	 1.590E+00	 0.000E+00	 1.613E+01	 0.000E+00	 1.186E+03	 1.225E+01	 1.708E+02	 0.000E+00	 0.000E+00	 0.000E+00	 0.000E+00	-3.300E-02	 3.484E-01	 0.000E+00	 0.000E+00	 5.071E+03	 4.324E+01
  31.100	-1.500E+00	 4.876E-01	 2.132E+01	-4.169E-01	 1.584E+00	 0.000E+00	 1.613E+01	 0.000E+00	 1.187E+03	 1.226E+01	 1.717E+02	 0.000E+00	 0.000E+00	 0.000E+00	 0.000E+00	-3.296E-02	 3.506E-01	 0.000E+00	 0.000E+00	 5.071E+03	 4.322E+01
  31.113	-1.580E+00	 4.638E-01	 2.147E+01	-3.948E-01	 1.578E+00	 0.000E+00	 1.614E+01	 0.000E+00	 1.187E+03	 1.226E+01	 1.726E+02	 0.000E+00	 0.000E+00	 0.000E+00	 0.000E+00	-3.294E-02	 3.528E-01	 0.000E+00	 0.000E+00	 5.071E+03	 4.321E+01
  31.125	-1.660E+00	 4.396E-01	 2.162E+01	-3.727E-01	 1.572E+00	 0.000E+00	 1.615E+01	 0.000E+00	 1.188E+03	 1.227E+01	 1.735E+02	 0.000E+00	 0.000E+00	 0.000E+00	 0.000E+00	-3.293E-02	 3.549E-01	 0.000E+00	 0.000E+00	 5.072E+03	 4.320E+01
  31.138	-1.740E+00	 4.150E-01	 2.176E+01	-3.506E-01	 1.566E+00	 0.000E+00	 1.615E+01	 0.000E+00	 1.188E+03	 1.227E+01	 1.745E+02	 0.000E+00	 0.000E+00	 0.000E+00	 0.000E+00	-3.294E-02	 3.571E-01	 0.000E+00	 0.000E+00	 5.073E+03	 4.319E+01
  31.150	-1.820E+00	 3.900E-01	 2.191E+01	-3.287E-01	 1.561E+00	 0.000E+00	 1.616E+01	 0.000E+00	 1.189E+03	 1.228E+01	 1.754E+02	 0.000E+00	 0.000E+00	 0.000E+00	 0.000E+00	-3.297E-02	 3.592E-01	 0.000E+00	 0.000E+00	 5.075E+03	 4.317E+01
  31.163	-1.647E+00	 4.404E-01	 2.184E+01	-3.070E-01	 1.556E+00	 0.000E+00	 1.616E+01	 0.000E+00	 1.190E+03	 1.228E+01	 1.763E+02	 0.000E+00	 0.000E+00	 0.000E+00	 0.000E+00	-3.302E-02	 3.614E-01	 0.000E+00	 0.000E+00	 5.076E+03	 4.316E+01
  31.175	-1.475E+00	 4.904E-01	 2.178E+01	-2.854E-01	 1.551E+00	 0.000E+00	 1.617E+01	 0.000E+00	 1.190E+03	 1.229E+01	 1.772E+02	 0.000E+00	 0.000E+00	 0.000E+00	 0.000E+00	-3.308E-02	 3.635E-01	 0.000E+00	 0.000E+00	 5.078E+03	 4.315E+01
  31.188	-1.303E+00	 5.402E-01	 2.172E+01	-2.641E-01	 1.547E+00	 0.000E+00	 1.618E+01	 0.000E+00	 1.191E+03	 1.229E+01	 1.781E+02	 0.000E+00	 0.000E+00	 0.000E+00	 0.000E+00	-3.316E-02	 3.657E-01	 0.000E+00	 0.000E+00	 5.080E+03	 4.314E+01
  31.200	-1.130E+00	 5.897E-01	 2.165E+01	-2.429E-01	 1.543E+00	 0.000E+00	 1.618E+01	 0.000E+00	 1.192E+03	 1.230E+01	 1.791E+02	 0.000E+00	 0.000E+00	 0.000E+00	 0.000E+00	-3.327E-02	 3.678E-01	 0.000E+00	 0.000E+00	 5.081E+03	 4.312E+01
  31.212	-1.113E+00	 5.661E-01	 2.151E+01	-2.220E-01	 1.540E+00	 0.000E+00	 1.619E+01	 0.000E+00	 1.193E+03	 1.231E+01	 1.800E+02	 0.000E+00	 0.000E+00	 0.000E+00	 0.000E+00	-3.339E-02	 3.699E-01	 0.000E+00	 0.000E+00	 5.083E+03	 4.311E+01
  31.225	-1.095E+00	 5.429E-01	 2.137E+01	-2.015E-01	 1.537E+00	 0.000E+00	 1.620E+01	 0.000E+00	 1.194E+03	 1.231E+01	 1.809E+02	 0.000E+00	 0.000E+00	 0.000E+00	 0.000E+00	-3.354E-02	 3.721E-01	 0.000E+00	 0.000E+00	 5.085E+03	 4.310E+01
  31.238	-1.077E+00	 5.199E-01	 2.123E+01	-1.813E-01	 1.535E+00	 0.000E+00	 1.621E+01	 0.000E+00	 1.195E+03	 1.232E+01	 1.818E+02	 0.000E+00	 0.000E+00	 0.000E+00	 0.000E+00	-3.370E-02	 3.742E-01	 0.000E+00	 0.000E+00	 5.087E+03	 4.308E+01
  31.250	-1.060E+00	 4.971E-01	 2.109E+01	-1.618E-01	 1.533E+00	 0.000E+00	 1.621E+01	 0.000E+00	 1.195E+03	 1.232E+01	 1.828E+02	 0.000E+00	 0.000E+00	 0.000E+00	 0.000E+00	-3.389E-02	 3.763E-01	 0.000E+00	 0.000E+00	 5.089E+03	 4.307E+01
  31.263	-1.133E+00	 5.523E-01	 2.123E+01	-1.427E-01	 1.531E+00	 0.000E+00	 1.622E+01	 0.000E+00	 1.196E+03	 1.232E+01	 1.837E+02	 0.000E+00	 0.000E+00	 0.000E+00	 0.000E+00	-3.410E-02	 3.785E-01	 0.000E+00	 0.000E+00	 5.091E+03	 4.305E+01
  31.275	-1.205E+00	 6.082E-01	 2.137E+01	-1.242E-01	 1.530E+00	 0.000E+00	 1.623E+01	 0.000E+00	 1.197E+03	 1.233E+01	 1.846E+02	 0.000E+00	 0.000E+00	 0.000E+00	 0.000E+00	-3.433E-02	 3.806E-01	 0.000E+00	 0.000E+00	 5.093E+03	 4.304E+01
  31.288	-1.278E+00	 6.647E-01	 2.151E+01	-1.061E-01	 1.529E+00	 0.000E+00	 1.624E+01	 0.000E+00	 1.198E+03	 1.233E+01	 1.855E+02	 0.000E+00	 0.000E+00	 0.000E+00	 0.000E+00	-3.458E-02	 3.827E-01	 0.000E+00	 0.000E+00	 5.095E+03	 4.302E+01
  31.300	-1.350E+00	 7.219E-01	 2.165E+01	-8.871E-02	 1.528E+00	 0.000E+00	 1.624E+01	 0.000E+00	 1.199E+03	 1.234E+01	 1.864E+02	 0.000E+00	 0.000E+00	 0.000E+00	 0.000E+00	-3.485E-02	 3.848E-01	 0.000E+00	 0.000E+00	 5.096E+03	 4.300E+01
  31.312	-1.370E+00	 6.959E-01	 2.157E+01	-7.171E-02	 1.528E+00	 0.000E+00	 1.625E+01	 0.000E+00	 1.199E+03	 1.235E+01	 1.874E+02	 0.000E+00	 0.000E+00	 0.000E+00	 0.000E+00	-3.514E-02	 3.869E-01	 0.000E+00	 0.000E+00	 5.097E+03	 4.299E+01
  31.325	-1.390E+00	 6.700E-01	 2.150E+01	-5.467E-02	 1.528E+00	 0.000E+00	 1.626E+01	 0.000E+00	 1.200E+03	 1.236E+01	 1.883E+02	 0.000E+00	 0.000E+00	 0.000E+00	 0.000E+00	-3.546E-02	 3.890E-01	 0.000E+00	 0.000E+00	 5.098E+03	 4.297E+01
  31.337	-1.410E+00	 6.443E-01	 2.143E+01	-3.784E-02	 1.528E+00	 0.000E+00	 1.627E+01	 0.000E+00	 1.201E+03	 1.237E+01	 1.892E+02	 0.000E+00	 0.000E+00	 0.000E+00	 0.000E+00	-3.580E-02	 3.910E-01	 0.000E+00	 0.000E+00	 5.099E+03	 4.296E+01
  31.350	-1.430E+00	 6.188E-01	 2.135E+01	-2.026E-02	 1.529E+00	 0.000E+00	 1.628E+01	 0.000E+00	 1.201E+03	 1.239E+01	 1.902E+02	 0.000E+00	 0.000E+00	 0.000E+00	 0.000E+00	-3.616E-02	 3.931E-01	 0.000E+00	 0.000E+00	 5.100E+03	 4.294E+01
  31.363	-1.380E+00	 5.175E-01	 2.129E+01	-2.574E-03	 1.530E+00	 0.000E+00	 1.629E+01	 0.000E+00	 1.202E+03	 1.240E+01	 1.911E+02	 0.000E+00	 0.000E+00	 0.000E+00	 0.000E+00	-3.654E-02	 3.952E-01	 0.000E+00	 0.000E+00	 5.101E+03	 4.292E+01
  31.375	-1.330E+00	 4.168E-01	 2.123E+01	 1.523E-02	 1.531E+00	 0.000E+00	 1.630E+01	 0.000E+00	 1.203E+03	 1.241E+01	 1.920E+02	 0.000E+00	 0.000E+00	 0.000E+00	 0.000E+00	-3.695E-02	 3.972E-01	 0.000E+00	 0.000E+00	 5.101E+03	 4.291E+01
  31.388	-1.280E+00	 3.167E-01	 2.116E+01	 3.311E-02	 1.532E+00	 0.000E+00	 1.631E+01	 0.000E+00	 1.203E+03	 1.242E+01	 1.929E+02	 0.000E+00	 0.000E+00	 0.000E+00	 0.000E+00	-3.738E-02	 3.993E-01	 0.000E+00	 0.000E+00	 5.103E+03	 4.289E+01
  31.400	-1.230E+00	 2.173E-01	 2.110E+01	 5.039E-02	 1.533E+00	 0.000E+00	 1.632E+01	 0.000E+00	 1.204E+03	 1.242E+01	 1.939E+02	 0.000E+00	 0.000E+00	 0.000E+00	 0.000E+00	-3.783E-02	 4.013E-01	 0.000E+00	 0.000E+00	 5.104E+03	 4.287E+01
  31.413	-1.107E+00	 2.301E-01	 2.109E+01	 6.735E-02	 1.534E+00	 0.000E+00	 1.632E+01	 0.000E+00	 1.205E+03	 1.243E+01	 1.948E+02	 0.000E+00	 0.000E+00	 0.000E+00	 0.000E+00	-3.831E-02	 4.033E-01	 0.000E+00	 0.000E+00	 5.105E+03	 4.286E+01
  31.425	-9.850E-01	 2.429E-01	 2.108E+01	 8.359E-02	 1.534E+00	 0.000E+00	 1.633E+01	 0.000E+00	 1.206E+03	 1.243E+01	 1.957E+02	 0.000E+00	 0.000E+00	 0.000E+00	 0.000E+00	-3.882E-02	 4.054E-01	 0.000E+00	 0.000E+00	 5.106E+03	 4.284E+01
  31.438	-8.625E-01	 2.557E-01	 2.108E+01	 9.915E-02	 1.535E+00	 0.000E+00	 1.634E+01	 0.000E+00	 1.207E+03	 1.244E+01	 1.967E+02	 0.000E+00	 0.000E+00	 0.000E+00	 0.000E+00	-3.934E-02	 4.074E-01	 0.000E+00	 0.000E+00	 5.108E+03	 4.282E+01
  31.450	-7.400E-01	 2.684E-01	 2.107E+01	 1.139E-01	 1.534E+00	 0.000E+00	 1.635E+01	 0.000E+00	 1.207E+03	 1.244E+01	 1.976E+02	 0.000E+00	 0.000E+00	 0.000E+00	 0.000E+00	-3.990E-02	 4.093E-01	 0.000E+00	 0.000E+00	 5.109E+03	 4.280E+01
  31.462	-7.675E-01	 2.841E-01	 2.107E+01	 1.278E-01	 1.534E+00	 0.000E+00	 1.636E+01	 0.000E+00	 1.208E+03	 1.244E+01	 1.985E+02	 0.000E+00	 0.000E+00	 0.000E+00	 0.000E+00	-4.048E-02	 4.113E-01	 0.000E+00	 0.000E+00	 5.110E+03	 4.278E+01
  31.475	-7.950E-01	 2.998E-01	 2.108E+01	 1.409E-01	 1.533E+00	 0.000E+00	 1.637E+01	 0.000E+00	 1.209E+03	 1.244E+01	 1.995E+02	 0.000E+00	 0.000E+00	 0.000E+00	 0.000E+00	-4.109E-02	 4.132E-01	 0.000E+00	 0.000E+00	 5.111E+03	 4.277E+01
  31.488	-8.225E-01	 3.156E-01	 2.108E+01	 1.532E-01	 1.531E+00	 0.000E+00	 1.638E+01	 0.000E+00	 1.210E+03	 1.245E+01	 2.004E+02	 0.000E+00	 0.000E+00	 0.000E+00	 0.000E+00	-4.173E-02	 4.152E-01	 0.000E+00	 0.000E+00	 5.111E+03	 4.275E+01
  31.500	-8.500E-01	 3.313E-01	 2.109E+01	 1.649E-01	 1.529E+00	 0.000E+00	 1.639E+01	 0.000E+00	 1.210E+03	 1.245E+01	 2.013E+02	 0.000E+00	 0.000E+00	 0.000E+00	 0.000E+00	-4.239E-02	 4.171E-01	 0.000E+00	 0.000E+00	 5.112E+03	 4.273E+01
  31.513	-9.900E-01	 3.323E-01	 2.092E+01	 1.760E-01	 1.526E+00	 0.000E+00	 1.640E+01	 0.000E+00	 1.211E+03	 1.245E+01	 2.023E+02	 0.000E+00	 0.000E+00	 0.000E+00	 0.000E+00	-4.308E-02	 4.189E-01	 0.000E+00	 0.000E+00	 5.112E+03	 4.271E+01
  31.525	-1.130E+00	 3.332E-01	 2.075E+01	 1.865E-01	 1.523E+00	 0.000E+00	 1.642E+01	 0.000E+00	 1.211E+03	 1.246E+01	 2.032E+02	 0.000E+00	 0.000E+00	 0.000E+00	 0.000E+00	-4.379E-02	 4.208E-01	 0.000E+00	 0.000E+00	 5.112E+03	 4.269E+01
  31.538	-1.270E+00	 3.342E-01	 2.058E+01	 1.966E-01	 1.519E+00	 0.000E+00	 1.643E+01	 0.000E+00	 1.212E+03	 1.246E+01	 2.041E+02	 0.000E+00	 0.000E+00	 0.000E+00	 0.000E+00	-4.452E-02	 4.226E-01	 0.000E+00	 0.000E+00	 5.111E+03	 4.267E+01
  31.550	-1.410E+00	 3.350E-01	 2.042E+01	 2.064E-01	 1.514E+00	 0.000E+00	 1.644E+01	 0.000E+00	 1.212E+03	 1.247E+01	 2.051E+02	 0.000E+00	 0.000E+00	 0.000E+00	 0.000E+00	-4.528E-02	 4.244E-01	 0.000E+00	 0.000E+00	 5.110E+03	 4.265E+01
  31.562	-1.407E+00	 3.475E-01	 2.047E+01	 2.158E-01	 1.509E+00	 0.000E+00	 1.645E+01	 0.000E+00	 1.212E+03	 1.247E+01	 2.060E+02	 0.000E+00	 0.000E+00	 0.000E+00	 0.000E+00	-4.606E-02	 4.262E-01	 0.000E+00	 0.000E+00	 5.109E+03	 4.264E+01
  31.575	-1.405E+00	 3.600E-01	 2.052E+01	 2.248E-01	 1.503E+00	 0.000E+00	 1.646E+01	 0.000E+00	 1.212E+03	 1.248E+01	 2.070E+02	 0.000E+00	 0.000E+00	 0.000E+00	 0.000E+00	-4.687E-02	 4.280E-01	 0.000E+00	 0.000E+00	 5.108E+03	 4.262E+01
  31.587	-1.403E+00	 3.726E-01	 2.057E+01	 2.336E-01	 1.496E+00	 0.000E+00	 1.647E+01	 0.000E+00	 1.213E+03	 1.248E+01	 2.079E+02	 0.000E+00	 0.000E+00	 0.000E+00	 0.000E+00	-4.769E-02	 4.297E-01	 0.000E+00	 0.000E+00	 5.107E+03	 4.260E+01
  31.600	-1.400E+00	 3.852E-01	 2.063E+01	 2.416E-01	 1.489E+00	 0.000E+00	 1.648E+01	 0.000E+00	 1.213E+03	 1.249E+01	 2.088E+02	 0.000E+00	 0.000E+00	 0.000E+00	 0.000E+00	-4.854E-02	 4.313E-01	 0.000E+00	 0.000E+00	 5.105E+03	 4.258E+01
  31.613	-1.285E+00	 4.725E-01	 2.058E+01	 2.494E-01	 1.481E+00	 0.000E+00	 1.649E+01	 0.000E+00	 1.213E+03	 1.249E+01	 2.098E+02	 0.000E+00	 0.000E+00	 0.000E+00	 0.000E+00	-4.940E-02	 4.330E-01	 0.000E+00	 0.000E+00	 5.104E+03	 4.257E+01
  31.625	-1.170E+00	 5.593E-01	 2.054E+01	 2.569E-01	 1.473E+00	 0.000E+00	 1.650E+01	 0.000E+00	 1.213E+03	 1.250E+01	 2.107E+02	 0.000E+00	 0.000E+00	 0.000E+00	 0.000E+00	-5.029E-02	 4.346E-01	 0.000E+00	 0.000E+00	 5.102E+03	 4.255E+01
  31.638	-1.055E+00	 6.458E-01	 2.049E+01	 2.640E-01	 1.464E+00	 0.000E+00	 1.651E+01	 0.000E+00	 1.213E+03	 1.250E+01	 2.116E+02	 0.000E+00	 0.000E+00	 0.000E+00	 0.000E+00	-5.120E-02	 4.361E-01	 0.000E+00	 0.000E+00	 5.100E+03	 4.253E+01
  31.650	-9.400E-01	 7.319E-01	 2.045E+01	 2.713E-01	 1.455E+00	 0.000E+00	 1.652E+01	 0.000E+00	 1.213E+03	 1.251E+01	 2.126E+02	 0.000E+00	 0.000E+00	 0.000E+00	 0.000E+00	-5.212E-02	 4.377E-01	 0.000E+00	 0.000E+00	 5.099E+03	 4.251E+01
  31.663	-8.400E-01	 7.364E-01	 2.040E+01	 2.784E-01	 1.445E+00	 0.000E+00	 1.653E+01	 0.000E+00	 1.213E+03	 1.252E+01	 2.135E+02	 0.000E+00	 0.000E+00	 0.000E+00	 0.000E+00	-5.306E-02	 4.391E-01	 0.000E+00	 0.000E+00	 5.097E+03	 4.250E+01
  31.675	-7.400E-01	 7.409E-01	 2.035E+01	 2.853E-01	 1.435E+00	 0.000E+00	 1.654E+01	 0.000E+00	 1.213E+03	 1.252E+01	 2.145E+02	 0.000E+00	 0.000E+00	 0.000E+00	 0.000E+00	-5.402E-02	 4.406E-01	 0.000E+00	 0.000E+00	 5.096E+03	 4.248E+01
  31.688	-6.400E-01	 7.454E-01	 2.030E+01	 2.920E-01	 1.425E+00	 0.000E+00	 1.655E+01	 0.000E+00	 1.214E+03	 1.252E+01	 2.154E+02	 0.000E+00	 0.000E+00	 0.000E+00	 0.000E+00	-5.499E-02	 4.420E-01	 0.000E+00	 0.000E+00	 5.095E+03	 4.247E+01
  31.700	-5.400E-01	 7.498E-01	 2.026E+01	 2.980E-01	 1.414E+00	 0.000E+00	 1.656E+01	 0.000E+00	 1.214E+03	 1.252E+01	 2.163E+02	 0.000E+00	 0.000E+00	 0.000E+00	 0.000E+00	-5.598E-02	 4.433E-01	 0.000E+00	 0.000E+00	 5.094E+03	 4.245E+01
  31.712	-6.225E-01	 6.756E-01	 2.034E+01	 3.038E-01	 1.402E+00	 0.000E+00	 1.657E+01	 0.000E+00	 1.214E+03	 1.252E+01	 2.173E+02	 0.000E+00	 0.000E+00	 0.000E+00	 0.000E+00	-5.698E-02	 4.446E-01	 0.000E+00	 0.000E+00	 5.093E+03	 4.244E+01
  31.725	-7.050E-01	 6.007E-01	 2.042E+01	 3.088E-01	 1.391E+00	 0.000E+00	 1.658E+01	 0.000E+00	 1.214E+03	 1.253E+01	 2.182E+02	 0.000E+00	 0.000E+00	 0.000E+00	 0.000E+00	-5.799E-02	 4.458E-01	 0.000E+00	 0.000E+00	 5.092E+03	 4.242E+01
  31.738	-7.875E-01	 5.253E-01	 2.050E+01	 3.134E-01	 1.379E+00	 0.000E+00	 1.659E+01	 0.000E+00	 1.214E+03	 1.253E+01	 2.191E+02	 0.000E+00	 0.000E+00	 0.000E+00	 0.000E+00	-5.902E-02	 4.470E-01	 0.000E+00	 0.000E+00	 5.091E+03	 4.240E+01
  31.750	-8.700E-01	 4.492E-01	 2.059E+01	 3.173E-01	 1.367E+00	 0.000E+00	 1.660E+01	 0.000E+00	 1.215E+03	 1.253E+01	 2.201E+02	 0.000E+00	 0.000E+00	 0.000E+00	 0.000E+00	-6.005E-02	 4.482E-01	 0.000E+00	 0.000E+00	 5.090E+03	 4.239E+01
  31.763	-1.040E+00	 3.506E-01	 2.045E+01	 3.207E-01	 1.355E+00	 0.000E+00	 1.660E+01	 0.000E+00	 1.215E+03	 1.253E+01	 2.210E+02	 0.000E+00	 0.000E+00	 0.000E+00	 0.000E+00	-6.109E-02	 4.492E-01	 0.000E+00	 0.000E+00	 5.090E+03	 4.237E+01
  31.775	-1.210E+00	 2.534E-01	 2.031E+01	 3.238E-01	 1.343E+00	 0.000E+00	 1.661E+01	 0.000E+00	 1.215E+03	 1.253E+01	 2.220E+02	 0.000E+00	 0.000E+00	 0.000E+00	 0.000E+00	-6.214E-02	 4.502E-01	 0.000E+00	 0.000E+00	 5.089E+03	 4.236E+01
  31.788	-1.380E+00	 1.575E-01	 2.017E+01	 3.265E-01	 1.331E+00	 0.000E+00	 1.662E+01	 0.000E+00	 1.216E+03	 1.253E+01	 2.229E+02	 0.000E+00	 0.000E+00	 0.000E+00	 0.000E+00	-6.319E-02	 4.512E-01	 0.000E+00	 0.000E+00	 5.089E+03	 4.235E+01
  31.800	-1.550E+00	 6.294E-02	 2.003E+01	 3.295E-01	 1.319E+00	 0.000E+00	 1.663E+01	 0.000E+00	 1.216E+03	 1.254E+01	 2.238E+02	 0.000E+00	 0.000E+00	 0.000E+00	 0.000E+00	-6.425E-02	 4.521E-01	 0.000E+00	 0.000E+00	 5.088E+03	 4.233E+01
  31.812	-1.640E+00	 1.630E-01	 2.008E+01	 3.324E-01	 1.307E+00	 0.000E+00	 1.664E+01	 0.000E+00	 1.216E+03	 1.254E+01	 2.248E+02	 0.000E+00	 0.000E+00	 0.000E+00	 0.000E+00	-6.532E-02	 4.529E-01	 0.000E+00	 0.000E+00	 5.088E+03	 4.232E+01
  31.825	-1.730E+00	 2.636E-01	 2.013E+01	 3.352E-01	 1.295E+00	 0.000E+00	 1.665E+01	 0.000E+00	 1.217E+03	 1.255E+01	 2.257E+02	 0.000E+00	 0.000E+00	 0.000E+00	 0.000E+00	-6.638E-02	 4.536E-01	 0.000E+00	 0.000E+00	 5.087E+03	 4.230E+01
  31.837	-1.820E+00	 3.646E-01	 2.018E+01	 3.383E-01	 1.283E+00	 0.000E+00	 1.666E+01	 0.000E+00	 1.217E+03	 1.255E+01	 2.267E+02	 0.000E+00	 0.000E+00	 0.000E+00	 0.000E+00	-6.745E-02	 4.543E-01	 0.000E+00	 0.000E+00	 5.087E+03	 4.229E+01
  31.850	-1.910E+00	 4.663E-01	 2.023E+01	 3.409E-01	 1.272E+00	 0.000E+00	 1.667E+01	 0.000E+00	 1.217E+03	 1.255E+01	 2.276E+02	 0.000E+00	 0.000E+00	 0.000E+00	 0.000E+00	-6.852E-02	 4.550E-01	 0.000E+00	 0.000E+00	 5.087E+03	 4.227E+01
  31.863	-1.710E+00	 2.545E-01	 2.046E+01	 3.437E-01	 1.260E+00	 0.000E+00	 1.668E+01	 0.000E+00	 1.218E+03	 1.256E+01	 2.286E+02	 0.000E+00	 0.000E+00	 0.000E+00	 0.000E+00	-6.958E-02	 4.555E-01	 0.000E+00	 0.000E+00	 5.087E+03	 4.226E+01
  31.875	-1.510E+00	 3.792E-02	 2.069E+01	 3.465E-01	 1.249E+00	 0.000E+00	 1.669E+01	 0.000E+00	 1.218E+03	 1.256E+01	 2.295E+02	 0.000E+00	 0.000E+00	 0.000E+00	 0.000E+00	-7.065E-02	 4.560E-01	 0.000E+00	 0.000E+00	 5.087E+03	 4.224E+01
  31.888	-1.310E+00	-1.834E-01	 2.091E+01	 3.495E-01	 1.238E+00	 0.000E+00	 1.670E+01	 0.000E+00	 1.218E+03	 1.257E+01	 2.304E+02	 0.000E+00	 0.000E+00	 0.000E+00	 0.000E+00	-7.171E-02	 4.564E-01	 0.000E+00	 0.000E+00	 5.087E+03	 4.223E+01
  31.900	-1.110E+00	-4.095E-01	 2.114E+01	 3.530E-01	 1.227E+00	 0.000E+00	 1.671E+01	 0.000E+00	 1.219E+03	 1.257E+01	 2.314E+02	 0.000E+00	 0.000E+00	 0.000E+00	 0.000E+00	-7.276E-02	 4.567E-01	 0.000E+00	 0.000E+00	 5.087E+03	 4.222E+01
  31.913	-1.040E+00	-4.572E-01	 2.104E+01	 3.568E-01	 1.217E+00	 0.000E+00	 1.672E+01	 0.000E+00	 1.219E+03	 1.258E+01	 2.323E+02	 0.000E+00	 0.000E+00	 0.000E+00	 0.000E+00	-7.380E-02	 4.570E-01	 0.000E+00	 0.000E+00	 5.087E+03	 4.220E+01
  31.925	-9.700E-01	-5.044E-01	 2.094E+01	 3.612E-01	 1.208E+00	 0.000E+00	 1.673E+01	 0.000E+00	 1.220E+03	 1.259E+01	 2.333E+02	 0.000E+00	 0.000E+00	 0.000E+00	 0.000E+00	-7.484E-02	 4.572E-01	 0.000E+00	 0.000E+00	 5.087E+03	 4.219E+01
  31.938	-9.000E-01	-5.512E-01	 2.084E+01	 3.661E-01	 1.200E+00	 0.000E+00	 1.674E+01	 0.000E+00	 1.220E+03	 1.260E+01	 2.342E+02	 0.000E+00	 0.000E+00	 0.000E+00	 0.000E+00	-7.587E-02	 4.573E-01	 0.000E+00	 0.000E+00	 5.088E+03	 4.217E+01
  31.950	-8.300E-01	-5.975E-01	 2.074E+01	 3.719E-01	 1.193E+00	 0.000E+00	 1.675E+01	 0.000E+00	 1.221E+03	 1.261E+01	 2.352E+02	 0.000E+00	 0.000E+00	 0.000E+00	 0.000E+00	-7.689E-02	 4.573E-01	 0.000E+00	 0.000E+00	 5.089E+03	 4.216E+01
  31.962	-7.625E-01	-7.052E-01	 2.074E+01	 3.781E-01	 1.186E+00	 0.000E+00	 1.676E+01	 0.000E+00	 1.222E+03	 1.262E+01	 2.361E+02	 0.000E+00	 0.000E+00	 0.000E+00	 0.000E+00	-7.790E-02	 4.573E-01	 0.000E+00	 0.000E+00	 5.090E+03	 4.214E+01
  31.975	-6.950E-01	-8.128E-01	 2.073E+01	 3.846E-01	 1.180E+00	 0.000E+00	 1.677E+01	 0.000E+00	 1.222E+03	 1.262E+01	 2.370E+02	 0.000E+00	 0.000E+00	 0.000E+00	 0.000E+00	-7.890E-02	 4.571E-01	 0.000E+00	 0.000E+00	 5.091E+03	 4.213E+01
  31.988	-6.275E-01	-9.205E-01	 2.073E+01	 3.916E-01	 1.175E+00	 0.000E+00	 1.678E+01	 0.000E+00	 1.223E+03	 1.262E+01	 2.380E+02	 0.000E+00	 0.000E+00	 0.000E+00	 0.000E+00	-7.989E-02	 4.570E-01	 0.000E+00	 0.000E+00	 5.092E+03	 4.211E+01
  32.000	-5.600E-01	-1.028E+00	 2.072E+01	 3.982E-01	 1.170E+00	 0.000E+00	 1.679E+01	 0.000E+00	 1.224E+03	 1.262E+01	 2.389E+02	 0.000E+00	 0.000E+00	 0.000E+00	 0.000E+00	-8.087E-02	 4.567E-01	 0.000E+00	 0.000E+00	 5.094E+03	 4.210E+01
  32.013	-3.925E-01	-1.163E+00	 2.074E+01	 4.050E-01	 1.166E+00	 0.000E+00	 1.680E+01	 0.000E+00	 1.225E+03	 1.263E+01	 2.399E+02	 0.000E+00	 0.000E+00	 0.000E+00	 0.000E+00	-8.183E-02	 4.563E-01	 0.000E+00	 0.000E+00	 5.095E+03	 4.208E+01
  32.025	-2.250E-01	-1.299E+00	 2.076E+01	 4.117E-01	 1.164E+00	 0.000E+00	 1.681E+01	 0.000E+00	 1.226E+03	 1.263E+01	 2.408E+02	 0.000E+00	 0.000E+00	 0.000E+00	 0.000E+00	-8.279E-02	 4.559E-01	 0.000E+00	 0.000E+00	 5.097E+03	 4.207E+01
  32.038	-5.746E-02	-1.435E+00	 2.078E+01	 4.185E-01	 1.162E+00	 0.000E+00	 1.682E+01	 0.000E+00	 1.226E+03	 1.263E+01	 2.418E+02	 0.000E+00	 0.000E+00	 0.000E+00	 0.000E+00	-8.373E-02	 4.554E-01	 0.000E+00	 0.000E+00	 5.098E+03	 4.205E+01
  32.050	 1.100E-01	-1.571E+00	 2.079E+01	 4.255E-01	 1.160E+00	 0.000E+00	 1.683E+01	 0.000E+00	 1.227E+03	 1.264E+01	 2.427E+02	 0.000E+00	 0.000E+00	 0.000E+00	 0.000E+00	-8.466E-02	 4.548E-01	 0.000E+00	 0.000E+00	 5.099E+03	 4.204E+01
  32.062	 2.492E-03	-1.408E+00	 2.080E+01	 4.326E-01	 1.160E+00	 0.000E+00	 1.684E+01	 0.000E+00	 1.228E+03	 1.264E+01	 2.437E+02	 0.000E+00	 0.000E+00	 0.000E+00	 0.000E+00	-8.557E-02	 4.541E-01	 0.000E+00	 0.000E+00	 5.100E+03	 4.202E+01
  32.075	-1.050E-01	-1.246E+00	 2.081E+01	 4.401E-01	 1.160E+00	 0.000E+00	 1.685E+01	 0.000E+00	 1.228E+03	 1.265E+01	 2.446E+02	 0.000E+00	 0.000E+00	 0.000E+00	 0.000E+00	-8.647E-02	 4.534E-01	 0.000E+00	 0.000E+00	 5.101E+03	 4.200E+01
  32.088	-2.125E-01	-1.083E+00	 2.082E+01	 4.478E-01	 1.162E+00	 0.000E+00	 1.687E+01	 0.000E+00	 1.229E+03	 1.265E+01	 2.456E+02	 0.000E+00	 0.000E+00	 0.000E+00	 0.000E+00	-8.735E-02	 4.525E-01	 0.000E+00	 0.000E+00	 5.102E+03	 4.199E+01
  32.100	-3.200E-01	-9.204E-01	 2.083E+01	 4.560E-01	 1.164E+00	 0.000E+00	 1.688E+01	 0.000E+00	 1.230E+03	 1.266E+01	 2.465E+02	 0.000E+00	 0.000E+00	 0.000E+00	 0.000E+00	-8.822E-02	 4.516E-01	 0.000E+00	 0.000E+00	 5.102E+03	 4.197E+01
  32.112	-2.850E-01	-9.363E-01	 2.082E+01	 4.646E-01	 1.168E+00	 0.000E+00	 1.689E+01	 0.000E+00	 1.230E+03	 1.267E+01	 2.475E+02	 0.000E+00	 0.000E+00	 0.000E+00	 0.000E+00	-8.907E-02	 4.507E-01	 0.000E+00	 0.000E+00	 5.103E+03	 4.195E+01
  32.125	-2.500E-01	-9.522E-01	 2.081E+01	 4.736E-01	 1.172E+00	 0.000E+00	 1.690E+01	 0.000E+00	 1.231E+03	 1.267E+01	 2.484E+02	 0.000E+00	 0.000E+00	 0.000E+00	 0.000E+00	-8.990E-02	 4.496E-01	 0.000E+00	 0.000E+00	 5.103E+03	 4.194E+01
  32.138	-2.150E-01	-9.681E-01	 2.080E+01	 4.830E-01	 1.177E+00	 0.000E+00	 1.691E+01	 0.000E+00	 1.231E+03	 1.268E+01	 2.494E+02	 0.000E+00	 0.000E+00	 0.000E+00	 0.000E+00	-9.072E-02	 4.485E-01	 0.000E+00	 0.000E+00	 5.103E+03	 4.192E+01
  32.150	-1.800E-01	-9.839E-01	 2.079E+01	 4.927E-01	 1.183E+00	 0.000E+00	 1.692E+01	 0.000E+00	 1.232E+03	 1.269E+01	 2.503E+02	 0.000E+00	 0.000E+00	 0.000E+00	 0.000E+00	-9.152E-02	 4.473E-01	 0.000E+00	 0.000E+00	 5.103E+03	 4.190E+01
  32.163	-7.487E-03	-9.075E-01	 2.074E+01	 5.026E-01	 1.189E+00	 0.000E+00	 1.694E+01	 0.000E+00	 1.232E+03	 1.269E+01	 2.513E+02	 0.000E+00	 0.000E+00	 0.000E+00	 0.000E+00	-9.230E-02	 4.461E-01	 0.000E+00	 0.000E+00	 5.102E+03	 4.189E+01
  32.175	 1.650E-01	-8.313E-01	 2.070E+01	 5.127E-01	 1.197E+00	 0.000E+00	 1.695E+01	 0.000E+00	 1.233E+03	 1.270E+01	 2.522E+02	 0.000E+00	 0.000E+00	 0.000E+00	 0.000E+00	-9.306E-02	 4.447E-01	 0.000E+00	 0.000E+00	 5.102E+03	 4.187E+01
  32.188	 3.375E-01	-7.555E-01	 2.065E+01	 5.229E-01	 1.205E+00	 0.000E+00	 1.696E+01	 0.000E+00	 1.233E+03	 1.270E+01	 2.532E+02	 0.000E+00	 0.000E+00	 0.000E+00	 0.000E+00	-9.380E-02	 4.433E-01	 0.000E+00	 0.000E+00	 5.102E+03	 4.185E+01
  32.200	 5.100E-01	-6.801E-01	 2.061E+01	 5.330E-01	 1.214E+00	 0.000E+00	 1.697E+01	 0.000E+00	 1.233E+03	 1.271E+01	 2.541E+02	 0.000E+00	 0.000E+00	 0.000E+00	 0.000E+00	-9.453E-02	 4.418E-01	 0.000E+00	 0.000E+00	 5.101E+03	 4.184E+01
  32.213	 5.175E-01	-7.179E-01	 2.053E+01	 5.429E-01	 1.223E+00	 0.000E+00	 1.698E+01	 0.000E+00	 1.234E+03	 1.271E+01	 2.551E+02	 0.000E+00	 0.000E+00	 0.000E+00	 0.000E+00	-9.524E-02	 4.403E-01	 0.000E+00	 0.000E+00	 5.101E+03	 4.182E+01
  32.225	 5.250E-01	-7.555E-01	 2.046E+01	 5.525E-01	 1.233E+00	 0.000E+00	 1.699E+01	 0.000E+00	 1.234E+03	 1.271E+01	 2.560E+02	 0.000E+00	 0.000E+00	 0.000E+00	 0.000E+00	-9.593E-02	 4.387E-01	 0.000E+00	 0.000E+00	 5.100E+03	 4.180E+01
  32.237	 5.325E-01	-7.927E-01	 2.038E+01	 5.618E-01	 1.243E+00	 0.000E+00	 1.701E+01	 0.000E+00	 1.234E+03	 1.271E+01	 2.570E+02	 0.000E+00	 0.000E+00	 0.000E+00	 0.000E+00	-9.660E-02	 4.370E-01	 0.000E+00	 0.000E+00	 5.099E+03	 4.179E+01
  32.250	 5.400E-01	-8.297E-01	 2.030E+01	 5.706E-01	 1.253E+00	 0.000E+00	 1.702E+01	 0.000E+00	 1.235E+03	 1.271E+01	 2.579E+02	 0.000E+00	 0.000E+00	 0.000E+00	 0.000E+00	-9.726E-02	 4.353E-01	 0.000E+00	 0.000E+00	 5.098E+03	 4.177E+01
  32.263	 4.700E-01	-9.062E-01	 2.031E+01	 5.790E-01	 1.264E+00	 0.000E+00	 1.703E+01	 0.000E+00	 1.235E+03	 1.271E+01	 2.589E+02	 0.000E+00	 0.000E+00	 0.000E+00	 0.000E+00	-9.790E-02	 4.334E-01	 0.000E+00	 0.000E+00	 5.097E+03	 4.176E+01
  32.275	 4.000E-01	-9.827E-01	 2.031E+01	 5.867E-01	 1.274E+00	 0.000E+00	 1.704E+01	 0.000E+00	 1.235E+03	 1.271E+01	 2.599E+02	 0.000E+00	 0.000E+00	 0.000E+00	 0.000E+00	-9.853E-02	 4.316E-01	 0.000E+00	 0.000E+00	 5.096E+03	 4.174E+01
  32.288	 3.300E-01	-1.059E+00	 2.031E+01	 5.938E-01	 1.285E+00	 0.000E+00	 1.705E+01	 0.000E+00	 1.235E+03	 1.271E+01	 2.608E+02	 0.000E+00	 0.000E+00	 0.000E+00	 0.000E+00	-9.913E-02	 4.296E-01	 0.000E+00	 0.000E+00	 5.094E+03	 4.173E+01
  32.300	 2.600E-01	-1.136E+00	 2.032E+01	 6.002E-01	 1.295E+00	 0.000E+00	 1.706E+01	 0.000E+00	 1.235E+03	 1.271E+01	 2.618E+02	 0.000E+00	 0.000E+00	 0.000E+00	 0.000E+00	-9.973E-02	 4.276E-01	 0.000E+00	 0.000E+00	 5.093E+03	 4.171E+01
  32.312	 2.125E-01	-1.250E+00	 2.038E+01	 6.059E-01	 1.306E+00	 0.000E+00	 1.708E+01	 0.000E+00	 1.235E+03	 1.271E+01	 2.627E+02	 0.000E+00	 0.000E+00	 0.000E+00	 0.000E+00	-1.003E-01	 4.255E-01	 0.000E+00	 0.000E+00	 5.091E+03	 4.170E+01
  32.325	 1.650E-01	-1.364E+00	 2.043E+01	 6.110E-01	 1.317E+00	 0.000E+00	 1.709E+01	 0.000E+00	 1.235E+03	 1.271E+01	 2.637E+02	 0.000E+00	 0.000E+00	 0.000E+00	 0.000E+00	-1.009E-01	 4.234E-01	 0.000E+00	 0.000E+00	 5.088E+03	 4.168E+01
  32.338	 1.175E-01	-1.480E+00	 2.049E+01	 6.154E-01	 1.328E+00	 0.000E+00	 1.710E+01	 0.000E+00	 1.235E+03	 1.271E+01	 2.646E+02	 0.000E+00	 0.000E+00	 0.000E+00	 0.000E+00	-1.014E-01	 4.212E-01	 0.000E+00	 0.000E+00	 5.086E+03	 4.167E+01
  32.350	 7.003E-02	-1.596E+00	 2.055E+01	 6.194E-01	 1.338E+00	 0.000E+00	 1.711E+01	 0.000E+00	 1.235E+03	 1.271E+01	 2.656E+02	 0.000E+00	 0.000E+00	 0.000E+00	 0.000E+00	-1.019E-01	 4.189E-01	 0.000E+00	 0.000E+00	 5.084E+03	 4.165E+01
  32.362	 1.700E-01	-1.694E+00	 2.049E+01	 6.227E-01	 1.349E+00	 0.000E+00	 1.712E+01	 0.000E+00	 1.234E+03	 1.271E+01	 2.665E+02	 0.000E+00	 0.000E+00	 0.000E+00	 0.000E+00	-1.025E-01	 4.166E-01	 0.000E+00	 0.000E+00	 5.081E+03	 4.164E+01
  32.375	 2.700E-01	-1.791E+00	 2.043E+01	 6.257E-01	 1.360E+00	 0.000E+00	 1.713E+01	 0.000E+00	 1.234E+03	 1.271E+01	 2.675E+02	 0.000E+00	 0.000E+00	 0.000E+00	 0.000E+00	-1.030E-01	 4.142E-01	 0.000E+00	 0.000E+00	 5.078E+03	 4.163E+01
  32.388	 3.700E-01	-1.888E+00	 2.037E+01	 6.281E-01	 1.371E+00	 0.000E+00	 1.714E+01	 0.000E+00	 1.234E+03	 1.272E+01	 2.684E+02	 0.000E+00	 0.000E+00	 0.000E+00	 0.000E+00	-1.035E-01	 4.118E-01	 0.000E+00	 0.000E+00	 5.076E+03	 4.161E+01
  32.400	 4.700E-01	-1.985E+00	 2.031E+01	 6.302E-01	 1.381E+00	 0.000E+00	 1.715E+01	 0.000E+00	 1.234E+03	 1.272E+01	 2.694E+02	 0.000E+00	 0.000E+00	 0.000E+00	 0.000E+00	-1.039E-01	 4.093E-01	 0.000E+00	 0.000E+00	 5.073E+03	 4.160E+01
  32.413	 5.900E-01	-1.836E+00	 2.028E+01	 6.318E-01	 1.391E+00	 0.000E+00	 1.716E+01	 0.000E+00	 1.233E+03	 1.272E+01	 2.703E+02	 0.000E+00	 0.000E+00	 0.000E+00	 0.000E+00	-1.044E-01	 4.068E-01	 0.000E+00	 0.000E+00	 5.071E+03	 4.159E+01
  32.425	 7.100E-01	-1.687E+00	 2.024E+01	 6.326E-01	 1.401E+00	 0.000E+00	 1.717E+01	 0.000E+00	 1.233E+03	 1.272E+01	 2.713E+02	 0.000E+00	 0.000E+00	 0.000E+00	 0.000E+00	-1.049E-01	 4.042E-01	 0.000E+00	 0.000E+00	 5.068E+03	 4.158E+01
  32.438	 8.300E-01	-1.539E+00	 2.020E+01	 6.329E-01	 1.411E+00	 0.000E+00	 1.718E+01	 0.000E+00	 1.233E+03	 1.272E+01	 2.723E+02	 0.000E+00	 0.000E+00	 0.000E+00	 0.000E+00	-1.053E-01	 4.015E-01	 0.000E+00	 0.000E+00	 5.066E+03	 4.157E+01
  32.450	 9.500E-01	-1.392E+00	 2.016E+01	 6.322E-01	 1.421E+00	 0.000E+00	 1.719E+01	 0.000E+00	 1.233E+03	 1.272E+01	 2.732E+02	 0.000E+00	 0.000E+00	 0.000E+00	 0.000E+00	-1.058E-01	 3.988E-01	 0.000E+00	 0.000E+00	 5.064E+03	 4.156E+01
  32.463	 9.325E-01	-1.270E+00	 2.024E+01	 6.306E-01	 1.430E+00	 0.000E+00	 1.720E+01	 0.000E+00	 1.233E+03	 1.272E+01	 2.742E+02	 0.000E+00	 0.000E+00	 0.000E+00	 0.000E+00	-1.062E-01	 3.960E-01	 0.000E+00	 0.000E+00	 5.063E+03	 4.154E+01
  32.475	 9.150E-01	-1.147E+00	 2.032E+01	 6.281E-01	 1.439E+00	 0.000E+00	 1.721E+01	 0.000E+00	 1.233E+03	 1.272E+01	 2.751E+02	 0.000E+00	 0.000E+00	 0.000E+00	 0.000E+00	-1.066E-01	 3.932E-01	 0.000E+00	 0.000E+00	 5.061E+03	 4.153E+01
  32.487	 8.975E-01	-1.023E+00	 2.040E+01	 6.246E-01	 1.448E+00	 0.000E+00	 1.722E+01	 0.000E+00	 1.232E+03	 1.271E+01	 2.761E+02	 0.000E+00	 0.000E+00	 0.000E+00	 0.000E+00	-1.071E-01	 3.904E-01	 0.000E+00	 0.000E+00	 5.059E+03	 4.153E+01
  32.500	 8.800E-01	-8.978E-01	 2.048E+01	 6.202E-01	 1.457E+00	 0.000E+00	 1.723E+01	 0.000E+00	 1.232E+03	 1.271E+01	 2.770E+02	 0.000E+00	 0.000E+00	 0.000E+00	 0.000E+00	-1.075E-01	 3.874E-01	 0.000E+00	 0.000E+00	 5.058E+03	 4.152E+01
  32.513	 7.375E-01	-7.929E-01	 2.055E+01	 6.148E-01	 1.466E+00	 0.000E+00	 1.724E+01	 0.000E+00	 1.232E+03	 1.271E+01	 2.780E+02	 0.000E+00	 0.000E+00	 0.000E+00	 0.000E+00	-1.079E-01	 3.845E-01	 0.000E+00	 0.000E+00	 5.057E+03	 4.151E+01
  32.525	 5.950E-01	-6.874E-01	 2.061E+01	 6.086E-01	 1.474E+00	 0.000E+00	 1.724E+01	 0.000E+00	 1.232E+03	 1.271E+01	 2.789E+02	 0.000E+00	 0.000E+00	 0.000E+00	 0.000E+00	-1.083E-01	 3.815E-01	 0.000E+00	 0.000E+00	 5.055E+03	 4.150E+01
  32.538	 4.525E-01	-5.812E-01	 2.068E+01	 6.014E-01	 1.483E+00	 0.000E+00	 1.725E+01	 0.000E+00	 1.232E+03	 1.271E+01	 2.799E+02	 0.000E+00	 0.000E+00	 0.000E+00	 0.000E+00	-1.087E-01	 3.784E-01	 0.000E+00	 0.000E+00	 5.054E+03	 4.149E+01
  32.550	 3.100E-01	-4.744E-01	 2.074E+01	 5.937E-01	 1.491E+00	 0.000E+00	 1.726E+01	 0.000E+00	 1.232E+03	 1.271E+01	 2.808E+02	 0.000E+00	 0.000E+00	 0.000E+00	 0.000E+00	-1.090E-01	 3.753E-01	 0.000E+00	 0.000E+00	 5.053E+03	 4.148E+01
  32.562	 3.350E-01	-3.800E-01	 2.073E+01	 5.853E-01	 1.500E+00	 0.000E+00	 1.727E+01	 0.000E+00	 1.232E+03	 1.272E+01	 2.818E+02	 0.000E+00	 0.000E+00	 0.000E+00	 0.000E+00	-1.094E-01	 3.721E-01	 0.000E+00	 0.000E+00	 5.052E+03	 4.147E+01
  32.575	 3.600E-01	-2.857E-01	 2.072E+01	 5.762E-01	 1.508E+00	 0.000E+00	 1.728E+01	 0.000E+00	 1.233E+03	 1.272E+01	 2.827E+02	 0.000E+00	 0.000E+00	 0.000E+00	 0.000E+00	-1.098E-01	 3.690E-01	 0.000E+00	 0.000E+00	 5.052E+03	 4.146E+01
  32.588	 3.850E-01	-1.916E-01	 2.071E+01	 5.666E-01	 1.517E+00	 0.000E+00	 1.729E+01	 0.000E+00	 1.233E+03	 1.272E+01	 2.837E+02	 0.000E+00	 0.000E+00	 0.000E+00	 0.000E+00	-1.101E-01	 3.657E-01	 0.000E+00	 0.000E+00	 5.051E+03	 4.145E+01
  32.600	 4.100E-01	-9.755E-02	 2.070E+01	 5.564E-01	 1.526E+00	 0.000E+00	 1.730E+01	 0.000E+00	 1.233E+03	 1.273E+01	 2.846E+02	 0.000E+00	 0.000E+00	 0.000E+00	 0.000E+00	-1.105E-01	 3.624E-01	 0.000E+00	 0.000E+00	 5.051E+03	 4.145E+01
  32.612	 3.075E-01	-1.084E-01	 2.071E+01	 5.458E-01	 1.535E+00	 0.000E+00	 1.731E+01	 0.000E+00	 1.233E+03	 1.273E+01	 2.856E+02	 0.000E+00	 0.000E+00	 0.000E+00	 0.000E+00	-1.108E-01	 3.591E-01	 0.000E+00	 0.000E+00	 5.051E+03	 4.144E+01
  32.625	 2.050E-01	-1.193E-01	 2.071E+01	 5.346E-01	 1.544E+00	 0.000E+00	 1.731E+01	 0.000E+00	 1.233E+03	 1.273E+01	 2.866E+02	 0.000E+00	 0.000E+00	 0.000E+00	 0.000E+00	-1.112E-01	 3.558E-01	 0.000E+00	 0.000E+00	 5.051E+03	 4.143E+01
  32.638	 1.025E-01	-1.302E-01	 2.072E+01	 5.229E-01	 1.554E+00	 0.000E+00	 1.732E+01	 0.000E+00	 1.234E+03	 1.274E+01	 2.875E+02	 0.000E+00	 0.000E+00	 0.000E+00	 0.000E+00	-1.115E-01	 3.524E-01	 0.000E+00	 0.000E+00	 5.051E+03	 4.142E+01
  32.650	 0.000E+00	-1.411E-01	 2.073E+01	 5.106E-01	 1.563E+00	 0.000E+00	 1.733E+01	 0.000E+00	 1.234E+03	 1.274E+01	 2.885E+02	 0.000E+00	 0.000E+00	 0.000E+00	 0.000E+00	-1.118E-01	 3.489E-01	 0.000E+00	 0.000E+00	 5.051E+03	 4.141E+01
  32.663	-5.000E-03	-1.214E-01	 2.076E+01	 4.979E-01	 1.573E+00	 0.000E+00	 1.734E+01	 0.000E+00	 1.234E+03	 1.274E+01	 2.894E+02	 0.000E+00	 0.000E+00	 0.000E+00	 0.000E+00	-1.121E-01	 3.455E-01	 0.000E+00	 0.000E+00	 5.052E+03	 4.140E+01
  32.675	-9.999E-03	-1.017E-01	 2.080E+01	 4.847E-01	 1.583E+00	 0.000E+00	 1.735E+01	 0.000E+00	 1.235E+03	 1.274E+01	 2.904E+02	 0.000E+00	 0.000E+00	 0.000E+00	 0.000E+00	-1.124E-01	 3.420E-01	 0.000E+00	 0.000E+00	 5.053E+03	 4.140E+01
  32.688	-1.500E-02	-8.182E-02	 2.083E+01	 4.710E-01	 1.593E+00	 0.000E+00	 1.736E+01	 0.000E+00	 1.235E+03	 1.275E+01	 2.913E+02	 0.000E+00	 0.000E+00	 0.000E+00	 0.000E+00	-1.127E-01	 3.385E-01	 0.000E+00	 0.000E+00	 5.054E+03	 4.139E+01
  32.700	-2.000E-02	-6.192E-02	 2.087E+01	 4.570E-01	 1.603E+00	 0.000E+00	 1.737E+01	 0.000E+00	 1.236E+03	 1.275E+01	 2.923E+02	 0.000E+00	 0.000E+00	 0.000E+00	 0.000E+00	-1.130E-01	 3.349E-01	 0.000E+00	 0.000E+00	 5.055E+03	 4.138E+01
  32.713	 8.751E-02	-8.089E-02	 2.083E+01	 4.426E-01	 1.613E+00	 0.000E+00	 1.738E+01	 0.000E+00	 1.236E+03	 1.276E+01	 2.932E+02	 0.000E+00	 0.000E+00	 0.000E+00	 0.000E+00	-1.133E-01	 3.313E-01	 0.000E+00	 0.000E+00	 5.056E+03	 4.137E+01
  32.725	 1.950E-01	-9.979E-02	 2.079E+01	 4.280E-01	 1.624E+00	 0.000E+00	 1.738E+01	 0.000E+00	 1.237E+03	 1.276E+01	 2.942E+02	 0.000E+00	 0.000E+00	 0.000E+00	 0.000E+00	-1.136E-01	 3.277E-01	 0.000E+00	 0.000E+00	 5.057E+03	 4.136E+01
  32.737	 3.025E-01	-1.186E-01	 2.075E+01	 4.131E-01	 1.634E+00	 0.000E+00	 1.739E+01	 0.000E+00	 1.237E+03	 1.277E+01	 2.952E+02	 0.000E+00	 0.000E+00	 0.000E+00	 0.000E+00	-1.138E-01	 3.240E-01	 0.000E+00	 0.000E+00	 5.059E+03	 4.135E+01
  32.750	 4.100E-01	-1.374E-01	 2.071E+01	 3.980E-01	 1.645E+00	 0.000E+00	 1.740E+01	 0.000E+00	 1.238E+03	 1.277E+01	 2.961E+02	 0.000E+00	 0.000E+00	 0.000E+00	 0.000E+00	-1.141E-01	 3.204E-01	 0.000E+00	 0.000E+00	 5.060E+03	 4.134E+01
  32.763	 2.975E-01	-6.326E-02	 2.071E+01	 3.828E-01	 1.656E+00	 0.000E+00	 1.741E+01	 0.000E+00	 1.239E+03	 1.277E+01	 2.971E+02	 0.000E+00	 0.000E+00	 0.000E+00	 0.000E+00	-1.143E-01	 3.167E-01	 0.000E+00	 0.000E+00	 5.062E+03	 4.133E+01
  32.775	 1.850E-01	 1.086E-02	 2.072E+01	 3.672E-01	 1.666E+00	 0.000E+00	 1.742E+01	 0.000E+00	 1.239E+03	 1.278E+01	 2.980E+02	 0.000E+00	 0.000E+00	 0.000E+00	 0.000E+00	-1.145E-01	 3.130E-01	 0.000E+00	 0.000E+00	 5.063E+03	 4.132E+01
  32.788	 7.247E-02	 8.502E-02	 2.072E+01	 3.514E-01	 1.676E+00	 0.000E+00	 1.743E+01	 0.000E+00	 1.240E+03	 1.278E+01	 2.990E+02	 0.000E+00	 0.000E+00	 0.000E+00	 0.000E+00	-1.147E-01	 3.092E-01	 0.000E+00	 0.000E+00	 5.064E+03	 4.131E+01
  32.800	-4.000E-02	 1.592E-01	 2.073E+01	 3.353E-01	 1.686E+00	 0.000E+00	 1.744E+01	 0.000E+00	 1.241E+03	 1.278E+01	 3.000E+02	 0.000E+00	 0.000E+00	 0.000E+00	 0.000E+00	-1.149E-01	 3.055E-01	 0.000E+00	 0.000E+00	 5.066E+03	 4.130E+01
  32.812	-1.075E-01	 1.964E-01	 2.065E+01	 3.191E-01	 1.696E+00	 0.000E+00	 1.745E+01	 0.000E+00	 1.241E+03	 1.278E+01	 3.009E+02	 0.000E+00	 0.000E+00	 0.000E+00	 0.000E+00	-1.151E-01	 3.017E-01	 0.000E+00	 0.000E+00	 5.067E+03	 4.129E+01
  32.825	-1.750E-01	 2.333E-01	 2.056E+01	 3.027E-01	 1.706E+00	 0.000E+00	 1.746E+01	 0.000E+00	 1.242E+03	 1.279E+01	 3.019E+02	 0.000E+00	 0.000E+00	 0.000E+00	 0.000E+00	-1.153E-01	 2.980E-01	 0.000E+00	 0.000E+00	 5.068E+03	 4.128E+01
  32.838	-2.425E-01	 2.699E-01	 2.048E+01	 2.862E-01	 1.715E+00	 0.000E+00	 1.747E+01	 0.000E+00	 1.242E+03	 1.279E+01	 3.028E+02	 0.000E+00	 0.000E+00	 0.000E+00	 0.000E+00	-1.155E-01	 2.942E-01	 0.000E+00	 0.000E+00	 5.069E+03	 4.127E+01
  32.850	-3.100E-01	 3.063E-01	 2.040E+01	 2.699E-01	 1.724E+00	 0.000E+00	 1.748E+01	 0.000E+00	 1.243E+03	 1.280E+01	 3.038E+02	 0.000E+00	 0.000E+00	 0.000E+00	 0.000E+00	-1.156E-01	 2.904E-01	 0.000E+00	 0.000E+00	 5.069E+03	 4.126E+01
  32.862	-4.200E-01	 5.303E-01	 2.039E+01	 2.535E-01	 1.733E+00	 0.000E+00	 1.750E+01	 0.000E+00	 1.243E+03	 1.280E+01	 3.048E+02	 0.000E+00	 0.000E+00	 0.000E+00	 0.000E+00	-1.157E-01	 2.866E-01	 0.000E+00	 0.000E+00	 5.070E+03	 4.125E+01
  32.875	-5.300E-01	 7.541E-01	 2.037E+01	 2.372E-01	 1.742E+00	 0.000E+00	 1.751E+01	 0.000E+00	 1.244E+03	 1.280E+01	 3.057E+02	 0.000E+00	 0.000E+00	 0.000E+00	 0.000E+00	-1.159E-01	 2.828E-01	 0.000E+00	 0.000E+00	 5.070E+03	 4.124E+01
  32.888	-6.400E-01	 9.777E-01	 2.035E+01	 2.209E-01	 1.750E+00	 0.000E+00	 1.752E+01	 0.000E+00	 1.244E+03	 1.280E+01	 3.067E+02	 0.000E+00	 0.000E+00	 0.000E+00	 0.000E+00	-1.159E-01	 2.790E-01	 0.000E+00	 0.000E+00	 5.070E+03	 4.123E+01
  32.900	-7.500E-01	 1.201E+00	 2.033E+01	 2.045E-01	 1.757E+00	 0.000E+00	 1.753E+01	 0.000E+00	 1.244E+03	 1.280E+01	 3.076E+02	 0.000E+00	 0.000E+00	 0.000E+00	 0.000E+00	-1.160E-01	 2.751E-01	 0.000E+00	 0.000E+00	 5.070E+03	 4.121E+01
  32.913	-6.825E-01	 1.160E+00	 2.025E+01	 1.880E-01	 1.764E+00	 0.000E+00	 1.754E+01	 0.000E+00	 1.245E+03	 1.281E+01	 3.086E+02	 0.000E+00	 0.000E+00	 0.000E+00	 0.000E+00	-1.161E-01	 2.713E-01	 0.000E+00	 0.000E+00	 5.069E+03	 4.120E+01
  32.925	-6.150E-01	 1.119E+00	 2.017E+01	 1.716E-01	 1.770E+00	 0.000E+00	 1.755E+01	 0.000E+00	 1.245E+03	 1.281E+01	 3.096E+02	 0.000E+00	 0.000E+00	 0.000E+00	 0.000E+00	-1.161E-01	 2.675E-01	 0.000E+00	 0.000E+00	 5.069E+03	 4.119E+01
  32.938	-5.475E-01	 1.079E+00	 2.009E+01	 1.551E-01	 1.775E+00	 0.000E+00	 1.756E+01	 0.000E+00	 1.245E+03	 1.281E+01	 3.105E+02	 0.000E+00	 0.000E+00	 0.000E+00	 0.000E+00	-1.161E-01	 2.637E-01	 0.000E+00	 0.000E+00	 5.068E+03	 4.118E+01
  32.950	-4.800E-01	 1.038E+00	 2.001E+01	 1.388E-01	 1.779E+00	 0.000E+00	 1.757E+01	 0.000E+00	 1.245E+03	 1.281E+01	 3.115E+02	 0.000E+00	 0.000E+00	 0.000E+00	 0.000E+00	-1.161E-01	 2.599E-01	 0.000E+00	 0.000E+00	 5.066E+03	 4.117E+01
  32.963	-4.950E-01	 1.007E+00	 1.998E+01	 1.226E-01	 1.783E+00	 0.000E+00	 1.758E+01	 0.000E+00	 1.245E+03	 1.281E+01	 3.124E+02	 0.000E+00	 0.000E+00	 0.000E+00	 0.000E+00	-1.161E-01	 2.561E-01	 0.000E+00	 0.000E+00	 5.065E+03	 4.116E+01
  32.975	-5.100E-01	 9.753E-01	 1.994E+01	 1.063E-01	 1.785E+00	 0.000E+00	 1.759E+01	 0.000E+00	 1.245E+03	 1.281E+01	 3.134E+02	 0.000E+00	 0.000E+00	 0.000E+00	 0.000E+00	-1.161E-01	 2.523E-01	 0.000E+00	 0.000E+00	 5.064E+03	 4.115E+01
  32.987	-5.250E-01	 9.439E-01	 1.991E+01	 9.025E-02	 1.786E+00	 0.000E+00	 1.760E+01	 0.000E+00	 1.245E+03	 1.281E+01	 3.144E+02	 0.000E+00	 0.000E+00	 0.000E+00	 0.000E+00	-1.160E-01	 2.485E-01	 0.000E+00	 0.000E+00	 5.062E+03	 4.114E+01
  33.000	-5.400E-01	 9.127E-01	 1.987E+01	 7.399E-02	 1.787E+00	 0.000E+00	 1.761E+01	 0.000E+00	 1.244E+03	 1.281E+01	 3.153E+02	 0.000E+00	 0.000E+00	 0.000E+00	 0.000E+00	-1.159E-01	 2.447E-01	 0.000E+00	 0.000E+00	 5.060E+03	 4.113E+01
  33.013	-5.500E-01	 9.606E-01	 1.996E+01	 5.778E-02	 1.786E+00	 0.000E+00	 1.762E+01	 0.000E+00	 1.244E+03	 1.281E+01	 3.163E+02	 0.000E+00	 0.000E+00	 0.000E+00	 0.000E+00	-1.158E-01	 2.410E-01	 0.000E+00	 0.000E+00	 5.058E+03	 4.112E+01
  33.025	-5.600E-01	 1.009E+00	 2.005E+01	 4.147E-02	 1.785E+00	 0.000E+00	 1.763E+01	 0.000E+00	 1.244E+03	 1.281E+01	 3.172E+02	 0.000E+00	 0.000E+00	 0.000E+00	 0.000E+00	-1.157E-01	 2.372E-01	 0.000E+00	 0.000E+00	 5.056E+03	 4.111E+01
  33.038	-5.700E-01	 1.058E+00	 2.015E+01	 2.516E-02	 1.782E+00	 0.000E+00	 1.764E+01	 0.000E+00	 1.244E+03	 1.280E+01	 3.182E+02	 0.000E+00	 0.000E+00	 0.000E+00	 0.000E+00	-1.155E-01	 2.335E-01	 0.000E+00	 0.000E+00	 5.053E+03	 4.110E+01
  33.050	-5.800E-01	 1.107E+00	 2.024E+01	 8.730E-03	 1.779E+00	 0.000E+00	 1.765E+01	 0.000E+00	 1.243E+03	 1.280E+01	 3.192E+02	 0.000E+00	 0.000E+00	 0.000E+00	 0.000E+00	-1.153E-01	 2.298E-01	 0.000E+00	 0.000E+00	 5.051E+03	 4.109E+01
  33.062	-6.575E-01	 1.144E+00	 2.030E+01	-7.723E-03	 1.775E+00	 0.000E+00	 1.766E+01	 0.000E+00	 1.243E+03	 1.280E+01	 3.201E+02	 0.000E+00	 0.000E+00	 0.000E+00	 0.000E+00	-1.151E-01	 2.261E-01	 0.000E+00	 0.000E+00	 5.048E+03	 4.109E+01
  33.075	-7.350E-01	 1.181E+00	 2.036E+01	-2.412E-02	 1.770E+00	 0.000E+00	 1.767E+01	 0.000E+00	 1.242E+03	 1.280E+01	 3.211E+02	 0.000E+00	 0.000E+00	 0.000E+00	 0.000E+00	-1.149E-01	 2.224E-01	 0.000E+00	 0.000E+00	 5.045E+03	 4.108E+01
  33.088	-8.125E-01	 1.219E+00	 2.042E+01	-4.050E-02	 1.764E+00	 0.000E+00	 1.768E+01	 0.000E+00	 1.242E+03	 1.280E+01	 3.220E+02	 0.000E+00	 0.000E+00	 0.000E+00	 0.000E+00	-1.146E-01	 2.187E-01	 0.000E+00	 0.000E+00	 5.043E+03	 4.107E+01
  33.100	-8.900E-01	 1.256E+00	 2.048E+01	-5.662E-02	 1.758E+00	 0.000E+00	 1.769E+01	 0.000E+00	 1.242E+03	 1.280E+01	 3.230E+02	 0.000E+00	 0.000E+00	 0.000E+00	 0.000E+00	-1.144E-01	 2.151E-01	 0.000E+00	 0.000E+00	 5.040E+03	 4.106E+01
  33.112	-8.550E-01	 1.167E+00	 2.044E+01	-7.263E-02	 1.751E+00	 0.000E+00	 1.769E+01	 0.000E+00	 1.241E+03	 1.280E+01	 3.240E+02	 0.000E+00	 0.000E+00	 0.000E+00	 0.000E+00	-1.141E-01	 2.114E-01	 0.000E+00	 0.000E+00	 5.037E+03	 4.106E+01
  33.125	-8.200E-01	 1.078E+00	 2.040E+01	-8.849E-02	 1.744E+00	 0.000E+00	 1.770E+01	 0.000E+00	 1.241E+03	 1.280E+01	 3.249E+02	 0.000E+00	 0.000E+00	 0.000E+00	 0.000E+00	-1.137E-01	 2.078E-01	 0.000E+00	 0.000E+00	 5.035E+03	 4.105E+01
  33.138	-7.850E-01	 9.896E-01	 2.036E+01	-1.042E-01	 1.736E+00	 0.000E+00	 1.771E+01	 0.000E+00	 1.240E+03	 1.280E+01	 3.259E+02	 0.000E+00	 0.000E+00	 0.000E+00	 0.000E+00	-1.134E-01	 2.043E-01	 0.000E+00	 0.000E+00	 5.033E+03	 4.105E+01
  33.150	-7.500E-01	 9.014E-01	 2.032E+01	-1.198E-01	 1.728E+00	 0.000E+00	 1.772E+01	 0.000E+00	 1.240E+03	 1.280E+01	 3.268E+02	 0.000E+00	 0.000E+00	 0.000E+00	 0.000E+00	-1.130E-01	 2.007E-01	 0.000E+00	 0.000E+00	 5.030E+03	 4.104E+01
  33.163	-9.075E-01	 6.670E-01	 2.013E+01	-1.353E-01	 1.721E+00	 0.000E+00	 1.773E+01	 0.000E+00	 1.240E+03	 1.280E+01	 3.278E+02	 0.000E+00	 0.000E+00	 0.000E+00	 0.000E+00	-1.126E-01	 1.972E-01	 0.000E+00	 0.000E+00	 5.029E+03	 4.104E+01
  33.175	-1.065E+00	 4.370E-01	 1.995E+01	-1.509E-01	 1.713E+00	 0.000E+00	 1.773E+01	 0.000E+00	 1.239E+03	 1.280E+01	 3.288E+02	 0.000E+00	 0.000E+00	 0.000E+00	 0.000E+00	-1.122E-01	 1.937E-01	 0.000E+00	 0.000E+00	 5.027E+03	 4.103E+01
  33.188	-1.222E+00	 2.112E-01	 1.975E+01	-1.665E-01	 1.705E+00	 0.000E+00	 1.774E+01	 0.000E+00	 1.239E+03	 1.279E+01	 3.297E+02	 0.000E+00	 0.000E+00	 0.000E+00	 0.000E+00	-1.118E-01	 1.903E-01	 0.000E+00	 0.000E+00	 5.026E+03	 4.103E+01
  33.200	-1.380E+00	-1.024E-02	 1.956E+01	-1.825E-01	 1.697E+00	 0.000E+00	 1.775E+01	 0.000E+00	 1.239E+03	 1.279E+01	 3.307E+02	 0.000E+00	 0.000E+00	 0.000E+00	 0.000E+00	-1.113E-01	 1.869E-01	 0.000E+00	 0.000E+00	 5.024E+03	 4.102E+01
  33.213	-1.415E+00	 4.270E-02	 1.957E+01	-1.985E-01	 1.688E+00	 0.000E+00	 1.776E+01	 0.000E+00	 1.239E+03	 1.278E+01	 3.316E+02	 0.000E+00	 0.000E+00	 0.000E+00	 0.000E+00	-1.108E-01	 1.835E-01	 0.000E+00	 0.000E+00	 5.023E+03	 4.102E+01
  33.225	-1.450E+00	 9.569E-02	 1.958E+01	-2.148E-01	 1.679E+00	 0.000E+00	 1.776E+01	 0.000E+00	 1.239E+03	 1.278E+01	 3.326E+02	 0.000E+00	 0.000E+00	 0.000E+00	 0.000E+00	-1.103E-01	 1.801E-01	 0.000E+00	 0.000E+00	 5.023E+03	 4.101E+01
  33.237	-1.485E+00	 1.487E-01	 1.959E+01	-2.312E-01	 1.670E+00	 0.000E+00	 1.777E+01	 0.000E+00	 1.239E+03	 1.277E+01	 3.336E+02	 0.000E+00	 0.000E+00	 0.000E+00	 0.000E+00	-1.098E-01	 1.768E-01	 0.000E+00	 0.000E+00	 5.022E+03	 4.101E+01
  33.250	-1.520E+00	 2.018E-01	 1.960E+01	-2.479E-01	 1.660E+00	 0.000E+00	 1.778E+01	 0.000E+00	 1.239E+03	 1.277E+01	 3.345E+02	 0.000E+00	 0.000E+00	 0.000E+00	 0.000E+00	-1.092E-01	 1.735E-01	 0.000E+00	 0.000E+00	 5.021E+03	 4.101E+01
  33.263	-1.447E+00	 2.906E-01	 1.953E+01	-2.646E-01	 1.650E+00	 0.000E+00	 1.779E+01	 0.000E+00	 1.238E+03	 1.276E+01	 3.355E+02	 0.000E+00	 0.000E+00	 0.000E+00	 0.000E+00	-1.087E-01	 1.703E-01	 0.000E+00	 0.000E+00	 5.020E+03	 4.100E+01
  33.275	-1.375E+00	 3.788E-01	 1.946E+01	-2.813E-01	 1.639E+00	 0.000E+00	 1.779E+01	 0.000E+00	 1.238E+03	 1.276E+01	 3.364E+02	 0.000E+00	 0.000E+00	 0.000E+00	 0.000E+00	-1.081E-01	 1.671E-01	 0.000E+00	 0.000E+00	 5.019E+03	 4.100E+01
  33.288	-1.302E+00	 4.663E-01	 1.939E+01	-2.978E-01	 1.629E+00	 0.000E+00	 1.780E+01	 0.000E+00	 1.238E+03	 1.276E+01	 3.374E+02	 0.000E+00	 0.000E+00	 0.000E+00	 0.000E+00	-1.075E-01	 1.639E-01	 0.000E+00	 0.000E+00	 5.018E+03	 4.100E+01
  33.300	-1.230E+00	 5.532E-01	 1.932E+01	-3.137E-01	 1.618E+00	 0.000E+00	 1.781E+01	 0.000E+00	 1.238E+03	 1.276E+01	 3.383E+02	 0.000E+00	 0.000E+00	 0.000E+00	 0.000E+00	-1.069E-01	 1.607E-01	 0.000E+00	 0.000E+00	 5.018E+03	 4.100E+01
  33.312	-1.295E+00	 5.214E-01	 1.939E+01	-3.291E-01	 1.607E+00	 0.000E+00	 1.781E+01	 0.000E+00	 1.238E+03	 1.276E+01	 3.393E+02	 0.000E+00	 0.000E+00	 0.000E+00	 0.000E+00	-1.062E-01	 1.576E-01	 0.000E+00	 0.000E+00	 5.017E+03	 4.099E+01
  33.325	-1.360E+00	 4.893E-01	 1.946E+01	-3.438E-01	 1.595E+00	 0.000E+00	 1.782E+01	 0.000E+00	 1.238E+03	 1.276E+01	 3.403E+02	 0.000E+00	 0.000E+00	 0.000E+00	 0.000E+00	-1.056E-01	 1.546E-01	 0.000E+00	 0.000E+00	 5.016E+03	 4.099E+01
  33.338	-1.425E+00	 4.569E-01	 1.953E+01	-3.578E-01	 1.582E+00	 0.000E+00	 1.783E+01	 0.000E+00	 1.238E+03	 1.277E+01	 3.412E+02	 0.000E+00	 0.000E+00	 0.000E+00	 0.000E+00	-1.049E-01	 1.515E-01	 0.000E+00	 0.000E+00	 5.015E+03	 4.099E+01
  33.350	-1.490E+00	 4.244E-01	 1.961E+01	-3.714E-01	 1.570E+00	 0.000E+00	 1.783E+01	 0.000E+00	 1.238E+03	 1.277E+01	 3.422E+02	 0.000E+00	 0.000E+00	 0.000E+00	 0.000E+00	-1.042E-01	 1.485E-01	 0.000E+00	 0.000E+00	 5.015E+03	 4.098E+01
  33.362	-1.543E+00	 4.245E-01	 1.969E+01	-3.842E-01	 1.557E+00	 0.000E+00	 1.784E+01	 0.000E+00	 1.238E+03	 1.277E+01	 3.431E+02	 0.000E+00	 0.000E+00	 0.000E+00	 0.000E+00	-1.035E-01	 1.455E-01	 0.000E+00	 0.000E+00	 5.014E+03	 4.098E+01
  33.375	-1.595E+00	 4.247E-01	 1.978E+01	-3.963E-01	 1.544E+00	 0.000E+00	 1.785E+01	 0.000E+00	 1.238E+03	 1.277E+01	 3.441E+02	 0.000E+00	 0.000E+00	 0.000E+00	 0.000E+00	-1.028E-01	 1.426E-01	 0.000E+00	 0.000E+00	 5.014E+03	 4.098E+01
  33.388	-1.648E+00	 4.248E-01	 1.987E+01	-4.077E-01	 1.531E+00	 0.000E+00	 1.785E+01	 0.000E+00	 1.238E+03	 1.277E+01	 3.450E+02	 0.000E+00	 0.000E+00	 0.000E+00	 0.000E+00	-1.021E-01	 1.397E-01	 0.000E+00	 0.000E+00	 5.013E+03	 4.098E+01
  33.400	-1.700E+00	 4.250E-01	 1.996E+01	-4.181E-01	 1.518E+00	 0.000E+00	 1.786E+01	 0.000E+00	 1.238E+03	 1.277E+01	 3.460E+02	 0.000E+00	 0.000E+00	 0.000E+00	 0.000E+00	-1.014E-01	 1.369E-01	 0.000E+00	 0.000E+00	 5.013E+03	 4.098E+01
  33.413	-1.672E+00	 4.870E-01	 1.996E+01	-4.278E-01	 1.505E+00	 0.000E+00	 1.787E+01	 0.000E+00	 1.238E+03	 1.278E+01	 3.470E+02	 0.000E+00	 0.000E+00	 0.000E+00	 0.000E+00	-1.006E-01	 1.341E-01	 0.000E+00	 0.000E+00	 5.013E+03	 4.097E+01
  33.425	-1.645E+00	 5.492E-01	 1.997E+01	-4.366E-01	 1.492E+00	 0.000E+00	 1.787E+01	 0.000E+00	 1.238E+03	 1.278E+01	 3.479E+02	 0.000E+00	 0.000E+00	 0.000E+00	 0.000E+00	-9.985E-02	 1.313E-01	 0.000E+00	 0.000E+00	 5.013E+03	 4.097E+01
  33.438	-1.618E+00	 6.113E-01	 1.998E+01	-4.448E-01	 1.479E+00	 0.000E+00	 1.788E+01	 0.000E+00	 1.238E+03	 1.278E+01	 3.489E+02	 0.000E+00	 0.000E+00	 0.000E+00	 0.000E+00	-9.908E-02	 1.286E-01	 0.000E+00	 0.000E+00	 5.014E+03	 4.097E+01
  33.450	-1.590E+00	 6.736E-01	 1.999E+01	-4.523E-01	 1.466E+00	 0.000E+00	 1.789E+01	 0.000E+00	 1.238E+03	 1.278E+01	 3.498E+02	 0.000E+00	 0.000E+00	 0.000E+00	 0.000E+00	-9.830E-02	 1.259E-01	 0.000E+00	 0.000E+00	 5.014E+03	 4.097E+01
  33.463	-1.620E+00	 5.480E-01	 2.003E+01	-4.592E-01	 1.453E+00	 0.000E+00	 1.789E+01	 0.000E+00	 1.238E+03	 1.278E+01	 3.508E+02	 0.000E+00	 0.000E+00	 0.000E+00	 0.000E+00	-9.752E-02	 1.232E-01	 0.000E+00	 0.000E+00	 5.015E+03	 4.097E+01
  33.475	-1.650E+00	 4.219E-01	 2.006E+01	-4.658E-01	 1.440E+00	 0.000E+00	 1.790E+01	 0.000E+00	 1.239E+03	 1.278E+01	 3.517E+02	 0.000E+00	 0.000E+00	 0.000E+00	 0.000E+00	-9.672E-02	 1.206E-01	 0.000E+00	 0.000E+00	 5.016E+03	 4.096E+01
  33.487	-1.680E+00	 2.955E-01	 2.010E+01	-4.721E-01	 1.428E+00	 0.000E+00	 1.791E+01	 0.000E+00	 1.239E+03	 1.278E+01	 3.527E+02	 0.000E+00	 0.000E+00	 0.000E+00	 0.000E+00	-9.592E-02	 1.181E-01	 0.000E+00	 0.000E+00	 5.017E+03	 4.096E+01
  33.500	-1.710E+00	 1.686E-01	 2.013E+01	-4.783E-01	 1.416E+00	 0.000E+00	 1.791E+01	 0.000E+00	 1.239E+03	 1.278E+01	 3.537E+02	 0.000E+00	 0.000E+00	 0.000E+00	 0.000E+00	-9.512E-02	 1.155E-01	 0.000E+00	 0.000E+00	 5.018E+03	 4.096E+01
  33.513	-1.748E+00	 2.109E-01	 2.006E+01	-4.843E-01	 1.404E+00	 0.000E+00	 1.792E+01	 0.000E+00	 1.240E+03	 1.277E+01	 3.546E+02	 0.000E+00	 0.000E+00	 0.000E+00	 0.000E+00	-9.431E-02	 1.130E-01	 0.000E+00	 0.000E+00	 5.019E+03	 4.095E+01
  33.525	-1.785E+00	 2.529E-01	 1.998E+01	-4.902E-01	 1.393E+00	 0.000E+00	 1.793E+01	 0.000E+00	 1.240E+03	 1.277E+01	 3.556E+02	 0.000E+00	 0.000E+00	 0.000E+00	 0.000E+00	-9.349E-02	 1.106E-01	 0.000E+00	 0.000E+00	 5.020E+03	 4.095E+01
  33.538	-1.823E+00	 2.945E-01	 1.991E+01	-4.960E-01	 1.383E+00	 0.000E+00	 1.794E+01	 0.000E+00	 1.240E+03	 1.277E+01	 3.565E+02	 0.000E+00	 0.000E+00	 0.000E+00	 0.000E+00	-9.267E-02	 1.082E-01	 0.000E+00	 0.000E+00	 5.020E+03	 4.095E+01
  33.550	-1.860E+00	 3.359E-01	 1.984E+01	-5.013E-01	 1.373E+00	 0.000E+00	 1.794E+01	 0.000E+00	 1.240E+03	 1.277E+01	 3.575E+02	 0.000E+00	 0.000E+00	 0.000E+00	 0.000E+00	-9.184E-02	 1.058E-01	 0.000E+00	 0.000E+00	 5.021E+03	 4.095E+01
  33.562	-2.010E+00	 2.775E-01	 2.000E+01	-5.064E-01	 1.364E+00	 0.000E+00	 1.795E+01	 0.000E+00	 1.241E+03	 1.277E+01	 3.585E+02	 0.000E+00	 0.000E+00	 0.000E+00	 0.000E+00	-9.101E-02	 1.035E-01	 0.000E+00	 0.000E+00	 5.021E+03	 4.094E+01
  33.575	-2.160E+00	 2.182E-01	 2.016E+01	-5.113E-01	 1.355E+00	 0.000E+00	 1.796E+01	 0.000E+00	 1.241E+03	 1.277E+01	 3.594E+02	 0.000E+00	 0.000E+00	 0.000E+00	 0.000E+00	-9.018E-02	 1.012E-01	 0.000E+00	 0.000E+00	 5.021E+03	 4.094E+01
  33.588	-2.310E+00	 1.579E-01	 2.033E+01	-5.159E-01	 1.346E+00	 0.000E+00	 1.796E+01	 0.000E+00	 1.241E+03	 1.277E+01	 3.717E-01	 0.000E+00	 0.000E+00	 0.000E+00	 0.000E+00	-8.934E-02	 9.902E-02	 0.000E+00	 0.000E+00	 5.021E+03	 4.094E+01
  33.600	-2.460E+00	 9.655E-02	 2.049E+01	-5.207E-01	 1.339E+00	 0.000E+00	 1.797E+01	 0.000E+00	 1.241E+03	 1.277E+01	 1.329E+00	 0.000E+00	 0.000E+00	 0.000E+00	 0.000E+00	-8.849E-02	 9.684E-02	 0.000E+00	 0.000E+00	 5.021E+03	 4.093E+01
  33.612	-2.503E+00	 9.022E-02	 2.047E+01	-5.255E-01	 1.332E+00	 0.000E+00	 1.798E+01	 0.000E+00	 1.241E+03	 1.277E+01	 2.287E+00	 0.000E+00	 0.000E+00	 0.000E+00	 0.000E+00	-8.765E-02	 9.470E-02	 0.000E+00	 0.000E+00	 5.020E+03	 4.093E+01
  33.625	-2.545E+00	 8.390E-02	 2.045E+01	-5.300E-01	 1.327E+00	 0.000E+00	 1.799E+01	 0.000E+00	 1.241E+03	 1.277E+01	 3.245E+00	 0.000E+00	 0.000E+00	 0.000E+00	 0.000E+00	-8.679E-02	 9.262E-02	 0.000E+00	 0.000E+00	 5.019E+03	 4.093E+01
  33.638	-2.588E+00	 7.758E-02	 2.044E+01	-5.346E-01	 1.322E+00	 0.000E+00	 1.799E+01	 0.000E+00	 1.241E+03	 1.278E+01	 4.203E+00	 0.000E+00	 0.000E+00	 0.000E+00	 0.000E+00	-8.593E-02	 9.059E-02	 0.000E+00	 0.000E+00	 5.018E+03	 4.092E+01
  33.650	-2.630E+00	 7.128E-02	 2.042E+01	-5.385E-01	 1.319E+00	 0.000E+00	 1.800E+01	 0.000E+00	 1.240E+03	 1.278E+01	 5.162E+00	 0.000E+00	 0.000E+00	 0.000E+00	 0.000E+00	-8.507E-02	 8.861E-02	 0.000E+00	 0.000E+00	 5.017E+03	 4.092E+01
  33.663	-2.665E+00	 1.298E-01	 2.052E+01	-5.424E-01	 1.316E+00	 0.000E+00	 1.801E+01	 0.000E+00	 1.240E+03	 1.279E+01	 6.121E+00	 0.000E+00	 0.000E+00	 0.000E+00	 0.000E+00	-8.420E-02	 8.669E-02	 0.000E+00	 0.000E+00	 5.017E+03	 4.092E+01
  33.675	-2.700E+00	 1.889E-01	 2.062E+01	-5.460E-01	 1.315E+00	 0.000E+00	 1.801E+01	 0.000E+00	 1.240E+03	 1.279E+01	 7.080E+00	 0.000E+00	 0.000E+00	 0.000E+00	 0.000E+00	-8.333E-02	 8.483E-02	 0.000E+00	 0.000E+00	 5.016E+03	 4.091E+01
  33.688	-2.735E+00	 2.486E-01	 2.072E+01	-5.497E-01	 1.314E+00	 0.000E+00	 1.802E+01	 0.000E+00	 1.240E+03	 1.279E+01	 8.039E+00	 0.000E+00	 0.000E+00	 0.000E+00	 0.000E+00	-8.245E-02	 8.303E-02	 0.000E+00	 0.000E+00	 5.015E+03	 4.091E+01
  33.700	-2.770E+00	 3.089E-01	 2.082E+01	-5.539E-01	 1.314E+00	 0.000E+00	 1.803E+01	 0.000E+00	 1.240E+03	 1.279E+01	 8.998E+00	 0.000E+00	 0.000E+00	 0.000E+00	 0.000E+00	-8.156E-02	 8.128E-02	 0.000E+00	 0.000E+00	 5.014E+03	 4.091E+01
  33.713	-2.527E+00	 3.063E-01	 2.077E+01	-5.586E-01	 1.315E+00	 0.000E+00	 1.804E+01	 0.000E+00	 1.240E+03	 1.278E+01	 9.957E+00	 0.000E+00	 0.000E+00	 0.000E+00	 0.000E+00	-8.068E-02	 7.960E-02	 0.000E+00	 0.000E+00	 5.013E+03	 4.091E+01
  33.725	-2.285E+00	 3.038E-01	 2.072E+01	-5.638E-01	 1.317E+00	 0.000E+00	 1.804E+01	 0.000E+00	 1.240E+03	 1.278E+01	 1.092E+01	 0.000E+00	 0.000E+00	 0.000E+00	 0.000E+00	-7.978E-02	 7.797E-02	 0.000E+00	 0.000E+00	 5.013E+03	 4.090E+01
  33.737	-2.043E+00	 3.012E-01	 2.067E+01	-5.697E-01	 1.320E+00	 0.000E+00	 1.805E+01	 0.000E+00	 1.240E+03	 1.278E+01	 1.187E+01	 0.000E+00	 0.000E+00	 0.000E+00	 0.000E+00	-7.888E-02	 7.640E-02	 0.000E+00	 0.000E+00	 5.012E+03	 4.090E+01
  33.750	-1.800E+00	 2.987E-01	 2.062E+01	-5.761E-01	 1.323E+00	 0.000E+00	 1.806E+01	 0.000E+00	 1.239E+03	 1.278E+01	 1.283E+01	 0.000E+00	 0.000E+00	 0.000E+00	 0.000E+00	-7.798E-02	 7.491E-02	 0.000E+00	 0.000E+00	 5.012E+03	 4.090E+01
  33.763	-1.670E+00	 2.425E-01	 2.043E+01	-5.833E-01	 1.328E+00	 0.000E+00	 1.806E+01	 0.000E+00	 1.239E+03	 1.277E+01	 1.379E+01	 0.000E+00	 0.000E+00	 0.000E+00	 0.000E+00	-7.707E-02	 7.348E-02	 0.000E+00	 0.000E+00	 5.011E+03	 4.090E+01
  33.775	-1.540E+00	 1.873E-01	 2.025E+01	-5.913E-01	 1.332E+00	 0.000E+00	 1.807E+01	 0.000E+00	 1.239E+03	 1.277E+01	 1.475E+01	 0.000E+00	 0.000E+00	 0.000E+00	 0.000E+00	-7.615E-02	 7.211E-02	 0.000E+00	 0.000E+00	 5.010E+03	 4.090E+01
  33.788	-1.410E+00	 1.331E-01	 2.006E+01	-6.003E-01	 1.337E+00	 0.000E+00	 1.807E+01	 0.000E+00	 1.239E+03	 1.276E+01	 1.571E+01	 0.000E+00	 0.000E+00	 0.000E+00	 0.000E+00	-7.523E-02	 7.082E-02	 0.000E+00	 0.000E+00	 5.010E+03	 4.090E+01
  33.800	-1.280E+00	 7.980E-02	 1.988E+01	-6.102E-01	 1.341E+00	 0.000E+00	 1.808E+01	 0.000E+00	 1.239E+03	 1.276E+01	 1.666E+01	 0.000E+00	 0.000E+00	 0.000E+00	 0.000E+00	-7.431E-02	 6.959E-02	 0.000E+00	 0.000E+00	 5.009E+03	 4.089E+01
  33.812	-1.378E+00	 2.336E-01	 1.990E+01	-6.211E-01	 1.346E+00	 0.000E+00	 1.809E+01	 0.000E+00	 1.239E+03	 1.275E+01	 1.762E+01	 0.000E+00	 0.000E+00	 0.000E+00	 0.000E+00	-7.338E-02	 6.844E-02	 0.000E+00	 0.000E+00	 5.008E+03	 4.089E+01
  33.825	-1.475E+00	 3.877E-01	 1.992E+01	-6.331E-01	 1.350E+00	 0.000E+00	 1.809E+01	 0.000E+00	 1.238E+03	 1.274E+01	 1.858E+01	 0.000E+00	 0.000E+00	 0.000E+00	 0.000E+00	-7.244E-02	 6.735E-02	 0.000E+00	 0.000E+00	 5.006E+03	 4.089E+01
  33.838	-1.573E+00	 5.422E-01	 1.994E+01	-6.459E-01	 1.353E+00	 0.000E+00	 1.810E+01	 0.000E+00	 1.238E+03	 1.273E+01	 1.953E+01	 0.000E+00	 0.000E+00	 0.000E+00	 0.000E+00	-7.149E-02	 6.633E-02	 0.000E+00	 0.000E+00	 5.005E+03	 4.089E+01
  33.850	-1.670E+00	 6.970E-01	 1.996E+01	-6.598E-01	 1.356E+00	 0.000E+00	 1.811E+01	 0.000E+00	 1.238E+03	 1.273E+01	 2.049E+01	 0.000E+00	 0.000E+00	 0.000E+00	 0.000E+00	-7.054E-02	 6.538E-02	 0.000E+00	 0.000E+00	 5.003E+03	 4.089E+01
  33.862	-1.735E+00	 7.258E-01	 1.989E+01	-6.744E-01	 1.359E+00	 0.000E+00	 1.811E+01	 0.000E+00	 1.237E+03	 1.272E+01	 2.144E+01	 0.000E+00	 0.000E+00	 0.000E+00	 0.000E+00	-6.959E-02	 6.449E-02	 0.000E+00	 0.000E+00	 5.000E+03	 4.089E+01
  33.875	-1.800E+00	 7.545E-01	 1.982E+01	-6.896E-01	 1.361E+00	 0.000E+00	 1.812E+01	 0.000E+00	 1.236E+03	 1.272E+01	 2.239E+01	 0.000E+00	 0.000E+00	 0.000E+00	 0.000E+00	-6.862E-02	 6.368E-02	 0.000E+00	 0.000E+00	 4.998E+03	 4.089E+01
  33.888	-1.865E+00	 7.830E-01	 1.975E+01	-7.053E-01	 1.362E+00	 0.000E+00	 1.812E+01	 0.000E+00	 1.236E+03	 1.272E+01	 2.335E+01	 0.000E+00	 0.000E+00	 0.000E+00	 0.000E+00	-6.765E-02	 6.294E-02	 0.000E+00	 0.000E+00	 4.995E+03	 4.089E+01
  33.900	-1.930E+00	 8.112E-01	 1.968E+01	-7.210E-01	 1.363E+00	 0.000E+00	 1.813E+01	 0.000E+00	 1.235E+03	 1.271E+01	 2.430E+01	 0.000E+00	 0.000E+00	 0.000E+00	 0.000E+00	-6.667E-02	 6.227E-02	 0.000E+00	 0.000E+00	 4.992E+03	 4.089E+01
  33.913	-1.922E+00	 7.062E-01	 1.968E+01	-7.369E-01	 1.363E+00	 0.000E+00	 1.813E+01	 0.000E+00	 1.234E+03	 1.271E+01	 2.525E+01	 0.000E+00	 0.000E+00	 0.000E+00	 0.000E+00	-6.567E-02	 6.168E-02	 0.000E+00	 0.000E+00	 4.989E+03	 4.089E+01
  33.925	-1.915E+00	 6.013E-01	 1.968E+01	-7.528E-01	 1.361E+00	 0.000E+00	 1.814E+01	 0.000E+00	 1.233E+03	 1.271E+01	 2.621E+01	 0.000E+00	 0.000E+00	 0.000E+00	 0.000E+00	-6.468E-02	 6.116E-02	 0.000E+00	 0.000E+00	 4.986E+03	 4.089E+01
  33.938	-1.908E+00	 4.964E-01	 1.968E+01	-7.687E-01	 1.360E+00	 0.000E+00	 1.814E+01	 0.000E+00	 1.233E+03	 1.271E+01	 2.716E+01	 0.000E+00	 0.000E+00	 0.000E+00	 0.000E+00	-6.367E-02	 6.071E-02	 0.000E+00	 0.000E+00	 4.983E+03	 4.090E+01
  33.950	-1.900E+00	 3.915E-01	 1.968E+01	-7.848E-01	 1.357E+00	 0.000E+00	 1.815E+01	 0.000E+00	 1.232E+03	 1.271E+01	 2.811E+01	 0.000E+00	 0.000E+00	 0.000E+00	 0.000E+00	-6.266E-02	 6.033E-02	 0.000E+00	 0.000E+00	 4.980E+03	 4.090E+01
  33.963	-1.875E+00	 5.706E-01	 1.954E+01	-8.010E-01	 1.353E+00	 0.000E+00	 1.815E+01	 0.000E+00	 1.231E+03	 1.271E+01	 2.907E+01	 0.000E+00	 0.000E+00	 0.000E+00	 0.000E+00	-6.164E-02	 6.001E-02	 0.000E+00	 0.000E+00	 4.978E+03	 4.090E+01
  33.975	-1.850E+00	 7.472E-01	 1.941E+01	-8.173E-01	 1.349E+00	 0.000E+00	 1.815E+01	 0.000E+00	 1.230E+03	 1.270E+01	 3.002E+01	 0.000E+00	 0.000E+00	 0.000E+00	 0.000E+00	-6.061E-02	 5.977E-02	 0.000E+00	 0.000E+00	 4.975E+03	 4.090E+01
  33.987	-1.825E+00	 9.213E-01	 1.927E+01	-8.337E-01	 1.344E+00	 0.000E+00	 1.816E+01	 0.000E+00	 1.230E+03	 1.270E+01	 3.097E+01	 0.000E+00	 0.000E+00	 0.000E+00	 0.000E+00	-5.958E-02	 5.960E-02	 0.000E+00	 0.000E+00	 4.973E+03	 4.091E+01
  34.000	-1.800E+00	 1.093E+00	 1.913E+01	-8.501E-01	 1.337E+00	 0.000E+00	 1.816E+01	 0.000E+00	 1.229E+03	 1.269E+01	 3.192E+01	 0.000E+00	 0.000E+00	 0.000E+00	 0.000E+00	-5.855E-02	 5.949E-02	 0.000E+00	 0.000E+00	 4.971E+03	 4.091E+01
  34.013	-1.833E+00	 1.112E+00	 1.909E+01	-8.667E-01	 1.329E+00	 0.000E+00	 1.816E+01	 0.000E+00	 1.229E+03	 1.269E+01	 3.288E+01	 0.000E+00	 0.000E+00	 0.000E+00	 0.000E+00	-5.751E-02	 5.945E-02	 0.000E+00	 0.000E+00	 4.969E+03	 4.092E+01
  34.025	-1.865E+00	 1.130E+00	 1.906E+01	-8.834E-01	 1.319E+00	 0.000E+00	 1.817E+01	 0.000E+00	 1.228E+03	 1.268E+01	 3.383E+01	 0.000E+00	 0.000E+00	 0.000E+00	 0.000E+00	-5.647E-02	 5.948E-02	 0.000E+00	 0.000E+00	 4.968E+03	 4.092E+01
  34.038	-1.898E+00	 1.149E+00	 1.902E+01	-9.003E-01	 1.308E+00	 0.000E+00	 1.817E+01	 0.000E+00	 1.228E+03	 1.267E+01	 3.478E+01	 0.000E+00	 0.000E+00	 0.000E+00	 0.000E+00	-5.543E-02	 5.957E-02	 0.000E+00	 0.000E+00	 4.967E+03	 4.093E+01
  34.050	-1.930E+00	 1.168E+00	 1.898E+01	-9.178E-01	 1.296E+00	 0.000E+00	 1.817E+01	 0.000E+00	 1.227E+03	 1.266E+01	 3.573E+01	 0.000E+00	 0.000E+00	 0.000E+00	 0.000E+00	-5.439E-02	 5.972E-02	 0.000E+00	 0.000E+00	 4.966E+03	 4.093E+01
  34.062	-1.985E+00	 1.150E+00	 1.898E+01	-9.354E-01	 1.282E+00	 0.000E+00	 1.818E+01	 0.000E+00	 1.227E+03	 1.265E+01	 3.668E+01	 0.000E+00	 0.000E+00	 0.000E+00	 0.000E+00	-5.335E-02	 5.992E-02	 0.000E+00	 0.000E+00	 4.965E+03	 4.094E+01
  34.075	-2.040E+00	 1.133E+00	 1.898E+01	-9.533E-01	 1.268E+00	 0.000E+00	 1.818E+01	 0.000E+00	 1.226E+03	 1.265E+01	 3.763E+01	 0.000E+00	 0.000E+00	 0.000E+00	 0.000E+00	-5.230E-02	 6.019E-02	 0.000E+00	 0.000E+00	 4.964E+03	 4.094E+01
  34.088	-2.095E+00	 1.115E+00	 1.898E+01	-9.713E-01	 1.252E+00	 0.000E+00	 1.818E+01	 0.000E+00	 1.226E+03	 1.264E+01	 3.858E+01	 0.000E+00	 0.000E+00	 0.000E+00	 0.000E+00	-5.126E-02	 6.051E-02	 0.000E+00	 0.000E+00	 4.963E+03	 4.095E+01
  34.100	-2.150E+00	 1.098E+00	 1.898E+01	-9.893E-01	 1.235E+00	 0.000E+00	 1.818E+01	 0.000E+00	 1.226E+03	 1.263E+01	 3.952E+01	 0.000E+00	 0.000E+00	 0.000E+00	 0.000E+00	-5.022E-02	 6.088E-02	 0.000E+00	 0.000E+00	 4.962E+03	 4.096E+01
  34.112	-2.118E+00	 1.062E+00	 1.901E+01	-1.007E+00	 1.218E+00	 0.000E+00	 1.819E+01	 0.000E+00	 1.225E+03	 1.263E+01	 4.047E+01	 0.000E+00	 0.000E+00	 0.000E+00	 0.000E+00	-4.918E-02	 6.131E-02	 0.000E+00	 0.000E+00	 4.962E+03	 4.096E+01
  34.125	-2.085E+00	 1.026E+00	 1.903E+01	-1.024E+00	 1.199E+00	 0.000E+00	 1.819E+01	 0.000E+00	 1.225E+03	 1.263E+01	 4.142E+01	 0.000E+00	 0.000E+00	 0.000E+00	 0.000E+00	-4.814E-02	 6.180E-02	 0.000E+00	 0.000E+00	 4.961E+03	 4.097E+01
[...]
  56.775	 8.300E-01	 1.395E+00	 1.932E+01	 3.891E-01	 1.098E+00	 0.000E+00	 1.630E+01	 0.000E+00	 1.171E+03	 1.207E+01	 2.369E+02	 0.000E+00	 0.000E+00	 0.000E+00	 0.000E+00	-5.197E-02	 2.608E-01	 0.000E+00	 0.000E+00	 5.000E+03	 4.320E+01
  56.788	 8.300E-01	 1.395E+00	 1.932E+01	 3.950E-01	 1.108E+00	 0.000E+00	 1.630E+01	 0.000E+00	 1.171E+03	 1.207E+01	 2.378E+02	 0.000E+00	 0.000E+00	 0.000E+00	 0.000E+00	-5.285E-02	 2.608E-01	 0.000E+00	 0.000E+00	 5.000E+03	 4.320E+01
  56.800	 8.300E-01	 1.395E+00	 1.932E+01	 4.009E-01	 1.118E+00	 0.000E+00	 1.630E+01	 0.000E+00	 1.171E+03	 1.207E+01	 2.387E+02	 0.000E+00	 0.000E+00	 0.000E+00	 0.000E+00	-5.373E-02	 2.609E-01	 0.000E+00	 0.000E+00	 5.000E+03	 4.320E+01
  56.812	 8.300E-01	 1.395E+00	 1.932E+01	 4.068E-01	 1.127E+00	 0.000E+00	 1.630E+01	 0.000E+00	 1.171E+03	 1.207E+01	 2.396E+02	 0.000E+00	 0.000E+00	 0.000E+00	 0.000E+00	-5.462E-02	 2.610E-01	 0.000E+00	 0.000E+00	 5.000E+03	 4.320E+01
  56.825	 8.300E-01	 1.395E+00	 1.932E+01	 4.127E-01	 1.137E+00	 0.000E+00	 1.630E+01	 0.000E+00	 1.171E+03	 1.207E+01	 2.405E+02	 0.000E+00	 0.000E+00	 0.000E+00	 0.000E+00	-5.550E-02	 2.611E-01	 0.000E+00	 0.000E+00	 5.000E+03	 4.320E+01
  56.838	 8.300E-01	 1.395E+00	 1.932E+01	 4.185E-01	 1.147E+00	 0.000E+00	 1.630E+01	 0.000E+00	 1.171E+03	 1.207E+01	 2.415E+02	 0.000E+00	 0.000E+00	 0.000E+00	 0.000E+00	-5.639E-02	 2.611E-01	 0.000E+00	 0.000E+00	 5.000E+03	 4.320E+01
  56.850	 8.300E-01	 1.395E+00	 1.932E+01	 4.242E-01	 1.158E+00	 0.000E+00	 1.630E+01	 0.000E+00	 1.171E+03	 1.207E+01	 2.424E+02	 0.000E+00	 0.000E+00	 0.000E+00	 0.000E+00	-5.728E-02	 2.612E-01	 0.000E+00	 0.000E+00	 5.000E+03	 4.320E+01
  56.862	 8.300E-01	 1.395E+00	 1.932E+01	 4.299E-01	 1.168E+00	 0.000E+00	 1.630E+01	 0.000E+00	 1.171E+03	 1.207E+01	 2.433E+02	 0.000E+00	 0.000E+00	 0.000E+00	 0.000E+00	-5.818E-02	 2.613E-01	 0.000E+00	 0.000E+00	 5.000E+03	 4.320E+01
  56.875	 8.300E-01	 1.395E+00	 1.932E+01	 4.355E-01	 1.178E+00	 0.000E+00	 1.630E+01	 0.000E+00	 1.171E+03	 1.207E+01	 2.442E+02	 0.000E+00	 0.000E+00	 0.000E+00	 0.000E+00	-5.907E-02	 2.613E-01	 0.000E+00	 0.000E+00	 5.000E+03	 4.320E+01
  56.888	 8.300E-01	 1.395E+00	 1.932E+01	 4.411E-01	 1.189E+00	 0.000E+00	 1.630E+01	 0.000E+00	 1.171E+03	 1.207E+01	 2.451E+02	 0.000E+00	 0.000E+00	 0.000E+00	 0.000E+00	-5.996E-02	 2.614E-01	 0.000E+00	 0.000E+00	 5.000E+03	 4.320E+01
  56.900	 8.300E-01	 1.395E+00	 1.932E+01	 4.466E-01	 1.200E+00	 0.000E+00	 1.630E+01	 0.000E+00	 1.171E+03	 1.207E+01	 2.460E+02	 0.000E+00	 0.000E+00	 0.000E+00	 0.000E+00	-6.085E-02	 2.615E-01	 0.000E+00	 0.000E+00	 5.000E+03	 4.320E+01
  56.913	 8.300E-01	 1.395E+00	 1.932E+01	 4.519E-01	 1.210E+00	 0.000E+00	 1.629E+01	 0.000E+00	 1.171E+03	 1.207E+01	 2.469E+02	 0.000E+00	 0.000E+00	 0.000E+00	 0.000E+00	-6.174E-02	 2.615E-01	 0.000E+00	 0.000E+00	 5.000E+03	 4.320E+01
  56.925	 8.300E-01	 1.395E+00	 1.932E+01	 4.572E-01	 1.221E+00	 0.000E+00	 1.629E+01	 0.000E+00	 1.171E+03	 1.207E+01	 2.478E+02	 0.000E+00	 0.000E+00	 0.000E+00	 0.000E+00	-6.264E-02	 2.616E-01	 0.000E+00	 0.000E+00	 5.000E+03	 4.320E+01
  56.938	 8.300E-01	 1.395E+00	 1.932E+01	 4.623E-01	 1.232E+00	 0.000E+00	 1.629E+01	 0.000E+00	 1.171E+03	 1.207E+01	 2.487E+02	 0.000E+00	 0.000E+00	 0.000E+00	 0.000E+00	-6.353E-02	 2.617E-01	 0.000E+00	 0.000E+00	 5.000E+03	 4.320E+01
  56.950	 8.300E-01	 1.395E+00	 1.932E+01	 4.673E-01	 1.242E+00	 0.000E+00	 1.629E+01	 0.000E+00	 1.171E+03	 1.207E+01	 2.496E+02	 0.000E+00	 0.000E+00	 0.000E+00	 0.000E+00	-6.442E-02	 2.617E-01	 0.000E+00	 0.000E+00	 5.000E+03	 4.320E+01
  56.963	 8.300E-01	 1.395E+00	 1.932E+01	 4.722E-01	 1.253E+00	 0.000E+00	 1.629E+01	 0.000E+00	 1.171E+03	 1.207E+01	 2.505E+02	 0.000E+00	 0.000E+00	 0.000E+00	 0.000E+00	-6.530E-02	 2.618E-01	 0.000E+00	 0.000E+00	 5.000E+03	 4.320E+01
  56.975	 8.300E-01	 1.395E+00	 1.932E+01	 4.768E-01	 1.264E+00	 0.000E+00	 1.629E+01	 0.000E+00	 1.171E+03	 1.207E+01	 2.514E+02	 0.000E+00	 0.000E+00	 0.000E+00	 0.000E+00	-6.619E-02	 2.619E-01	 0.000E+00	 0.000E+00	 5.000E+03	 4.320E+01
  56.987	 8.300E-01	 1.395E+00	 1.932E+01	 4.814E-01	 1.275E+00	 0.000E+00	 1.629E+01	 0.000E+00	 1.171E+03	 1.207E+01	 2.523E+02	 0.000E+00	 0.000E+00	 0.000E+00	 0.000E+00	-6.707E-02	 2.619E-01	 0.000E+00	 0.000E+00	 5.000E+03	 4.320E+01
  57.000	 8.300E-01	 1.395E+00	 1.932E+01	 4.857E-01	 1.286E+00	 0.000E+00	 1.629E+01	 0.000E+00	 1.171E+03	 1.207E+01	 2.532E+02	 0.000E+00	 0.000E+00	 0.000E+00	 0.000E+00	-6.796E-02	 2.620E-01	 0.000E+00	 0.000E+00	 5.001E+03	 4.320E+01
  57.013	 8.300E-01	 1.395E+00	 1.932E+01	 4.898E-01	 1.296E+00	 0.000E+00	 1.629E+01	 0.000E+00	 1.171E+03	 1.207E+01	 2.541E+02	 0.000E+00	 0.000E+00	 0.000E+00	 0.000E+00	-6.884E-02	 2.620E-01	 0.000E+00	 0.000E+00	 5.001E+03	 4.320E+01
  57.025	 8.300E-01	 1.395E+00	 1.932E+01	 4.937E-01	 1.307E+00	 0.000E+00	 1.629E+01	 0.000E+00	 1.171E+03	 1.207E+01	 2.550E+02	 0.000E+00	 0.000E+00	 0.000E+00	 0.000E+00	-6.971E-02	 2.621E-01	 0.000E+00	 0.000E+00	 5.001E+03	 4.320E+01
  57.038	 8.300E-01	 1.395E+00	 1.932E+01	 4.974E-01	 1.318E+00	 0.000E+00	 1.629E+01	 0.000E+00	 1.171E+03	 1.207E+01	 2.559E+02	 0.000E+00	 0.000E+00	 0.000E+00	 0.000E+00	-7.059E-02	 2.621E-01	 0.000E+00	 0.000E+00	 5.001E+03	 4.320E+01
  57.050	 8.300E-01	 1.395E+00	 1.932E+01	 5.008E-01	 1.329E+00	 0.000E+00	 1.629E+01	 0.000E+00	 1.171E+03	 1.207E+01	 2.568E+02	 0.000E+00	 0.000E+00	 0.000E+00	 0.000E+00	-7.146E-02	 2.622E-01	 0.000E+00	 0.000E+00	 5.001E+03	 4.320E+01
  57.062	 8.300E-01	 1.395E+00	 1.932E+01	 5.039E-01	 1.339E+00	 0.000E+00	 1.629E+01	 0.000E+00	 1.171E+03	 1.207E+01	 2.577E+02	 0.000E+00	 0.000E+00	 0.000E+00	 0.000E+00	-7.233E-02	 2.622E-01	 0.000E+00	 0.000E+00	 5.001E+03	 4.320E+01
  57.075	 8.300E-01	 1.395E+00	 1.932E+01	 5.068E-01	 1.350E+00	 0.000E+00	 1.629E+01	 0.000E+00	 1.171E+03	 1.207E+01	 2.587E+02	 0.000E+00	 0.000E+00	 0.000E+00	 0.000E+00	-7.319E-02	 2.623E-01	 0.000E+00	 0.000E+00	 5.001E+03	 4.320E+01
  57.088	 8.300E-01	 1.395E+00	 1.932E+01	 5.094E-01	 1.361E+00	 0.000E+00	 1.629E+01	 0.000E+00	 1.171E+03	 1.207E+01	 2.596E+02	 0.000E+00	 0.000E+00	 0.000E+00	 0.000E+00	-7.405E-02	 2.623E-01	 0.000E+00	 0.000E+00	 5.001E+03	 4.320E+01
  57.100	 8.300E-01	 1.395E+00	 1.932E+01	 5.116E-01	 1.371E+00	 0.000E+00	 1.629E+01	 0.000E+00	 1.171E+03	 1.207E+01	 2.605E+02	 0.000E+00	 0.000E+00	 0.000E+00	 0.000E+00	-7.491E-02	 2.624E-01	 0.000E+00	 0.000E+00	 5.001E+03	 4.320E+01
  57.112	 8.300E-01	 1.395E+00	 1.932E+01	 5.135E-01	 1.382E+00	 0.000E+00	 1.629E+01	 0.000E+00	 1.171E+03	 1.207E+01	 2.614E+02	 0.000E+00	 0.000E+00	 0.000E+00	 0.000E+00	-7.577E-02	 2.624E-01	 0.000E+00	 0.000E+00	 5.002E+03	 4.320E+01
  57.125	 8.300E-01	 1.395E+00	 1.932E+01	 5.151E-01	 1.393E+00	 0.000E+00	 1.629E+01	 0.000E+00	 1.171E+03	 1.207E+01	 2.623E+02	 0.000E+00	 0.000E+00	 0.000E+00	 0.000E+00	-7.662E-02	 2.624E-01	 0.000E+00	 0.000E+00	 5.002E+03	 4.320E+01
  57.138	 8.300E-01	 1.395E+00	 1.932E+01	 5.163E-01	 1.403E+00	 0.000E+00	 1.629E+01	 0.000E+00	 1.171E+03	 1.207E+01	 2.632E+02	 0.000E+00	 0.000E+00	 0.000E+00	 0.000E+00	-7.747E-02	 2.625E-01	 0.000E+00	 0.000E+00	 5.002E+03	 4.320E+01
  57.150	 8.300E-01	 1.395E+00	 1.932E+01	 5.172E-01	 1.414E+00	 0.000E+00	 1.629E+01	 0.000E+00	 1.171E+03	 1.207E+01	 2.641E+02	 0.000E+00	 0.000E+00	 0.000E+00	 0.000E+00	-7.831E-02	 2.625E-01	 0.000E+00	 0.000E+00	 5.002E+03	 4.320E+01
  57.163	 8.300E-01	 1.395E+00	 1.932E+01	 5.176E-01	 1.424E+00	 0.000E+00	 1.629E+01	 0.000E+00	 1.171E+03	 1.208E+01	 2.650E+02	 0.000E+00	 0.000E+00	 0.000E+00	 0.000E+00	-7.915E-02	 2.625E-01	 0.000E+00	 0.000E+00	 5.002E+03	 4.320E+01
  57.175	 8.300E-01	 1.395E+00	 1.932E+01	 5.177E-01	 1.435E+00	 0.000E+00	 1.629E+01	 0.000E+00	 1.171E+03	 1.208E+01	 2.659E+02	 0.000E+00	 0.000E+00	 0.000E+00	 0.000E+00	-7.998E-02	 2.626E-01	 0.000E+00	 0.000E+00	 5.002E+03	 4.320E+01
  57.188	 8.300E-01	 1.395E+00	 1.932E+01	 5.174E-01	 1.446E+00	 0.000E+00	 1.629E+01	 0.000E+00	 1.171E+03	 1.208E+01	 2.668E+02	 0.000E+00	 0.000E+00	 0.000E+00	 0.000E+00	-8.081E-02	 2.626E-01	 0.000E+00	 0.000E+00	 5.003E+03	 4.320E+01
  57.200	 8.300E-01	 1.395E+00	 1.932E+01	 5.167E-01	 1.456E+00	 0.000E+00	 1.629E+01	 0.000E+00	 1.171E+03	 1.208E+01	 2.677E+02	 0.000E+00	 0.000E+00	 0.000E+00	 0.000E+00	-8.164E-02	 2.626E-01	 0.000E+00	 0.000E+00	 5.003E+03	 4.320E+01
  57.213	 8.300E-01	 1.395E+00	 1.932E+01	 5.155E-01	 1.466E+00	 0.000E+00	 1.629E+01	 0.000E+00	 1.171E+03	 1.208E+01	 2.686E+02	 0.000E+00	 0.000E+00	 0.000E+00	 0.000E+00	-8.246E-02	 2.626E-01	 0.000E+00	 0.000E+00	 5.003E+03	 4.320E+01
  57.225	 8.300E-01	 1.395E+00	 1.932E+01	 5.140E-01	 1.477E+00	 0.000E+00	 1.629E+01	 0.000E+00	 1.172E+03	 1.208E+01	 2.695E+02	 0.000E+00	 0.000E+00	 0.000E+00	 0.000E+00	-8.328E-02	 2.626E-01	 0.000E+00	 0.000E+00	 5.003E+03	 4.320E+01
  57.237	 8.300E-01	 1.395E+00	 1.932E+01	 5.120E-01	 1.487E+00	 0.000E+00	 1.629E+01	 0.000E+00	 1.172E+03	 1.208E+01	 2.704E+02	 0.000E+00	 0.000E+00	 0.000E+00	 0.000E+00	-8.409E-02	 2.627E-01	 0.000E+00	 0.000E+00	 5.003E+03	 4.320E+01
  57.250	 8.300E-01	 1.395E+00	 1.932E+01	 5.095E-01	 1.498E+00	 0.000E+00	 1.629E+01	 0.000E+00	 1.172E+03	 1.208E+01	 2.713E+02	 0.000E+00	 0.000E+00	 0.000E+00	 0.000E+00	-8.489E-02	 2.627E-01	 0.000E+00	 0.000E+00	 5.003E+03	 4.320E+01
  57.263	 8.300E-01	 1.395E+00	 1.932E+01	 5.066E-01	 1.508E+00	 0.000E+00	 1.629E+01	 0.000E+00	 1.172E+03	 1.208E+01	 2.722E+02	 0.000E+00	 0.000E+00	 0.000E+00	 0.000E+00	-8.569E-02	 2.627E-01	 0.000E+00	 0.000E+00	 5.003E+03	 4.320E+01
  57.275	 8.300E-01	 1.395E+00	 1.932E+01	 5.033E-01	 1.518E+00	 0.000E+00	 1.629E+01	 0.000E+00	 1.172E+03	 1.208E+01	 2.731E+02	 0.000E+00	 0.000E+00	 0.000E+00	 0.000E+00	-8.648E-02	 2.627E-01	 0.000E+00	 0.000E+00	 5.003E+03	 4.320E+01
  57.288	 8.300E-01	 1.395E+00	 1.932E+01	 4.995E-01	 1.528E+00	 0.000E+00	 1.629E+01	 0.000E+00	 1.172E+03	 1.208E+01	 2.740E+02	 0.000E+00	 0.000E+00	 0.000E+00	 0.000E+00	-8.727E-02	 2.627E-01	 0.000E+00	 0.000E+00	 5.003E+03	 4.320E+01
  57.300	 8.300E-01	 1.395E+00	 1.932E+01	 4.953E-01	 1.538E+00	 0.000E+00	 1.629E+01	 0.000E+00	 1.172E+03	 1.208E+01	 2.750E+02	 0.000E+00	 0.000E+00	 0.000E+00	 0.000E+00	-8.805E-02	 2.627E-01	 0.000E+00	 0.000E+00	 5.004E+03	 4.320E+01
  57.312	 8.300E-01	 1.395E+00	 1.932E+01	 4.906E-01	 1.548E+00	 0.000E+00	 1.629E+01	 0.000E+00	 1.172E+03	 1.208E+01	 2.759E+02	 0.000E+00	 0.000E+00	 0.000E+00	 0.000E+00	-8.882E-02	 2.627E-01	 0.000E+00	 0.000E+00	 5.004E+03	 4.320E+01
  57.325	 8.300E-01	 1.395E+00	 1.932E+01	 4.854E-01	 1.558E+00	 0.000E+00	 1.629E+01	 0.000E+00	 1.172E+03	 1.208E+01	 2.768E+02	 0.000E+00	 0.000E+00	 0.000E+00	 0.000E+00	-8.959E-02	 2.627E-01	 0.000E+00	 0.000E+00	 5.004E+03	 4.319E+01
  57.338	 8.300E-01	 1.395E+00	 1.932E+01	 4.799E-01	 1.568E+00	 0.000E+00	 1.629E+01	 0.000E+00	 1.172E+03	 1.208E+01	 2.777E+02	 0.000E+00	 0.000E+00	 0.000E+00	 0.000E+00	-9.035E-02	 2.627E-01	 0.000E+00	 0.000E+00	 5.004E+03	 4.319E+01
  57.350	 8.300E-01	 1.395E+00	 1.932E+01	 4.738E-01	 1.577E+00	 0.000E+00	 1.629E+01	 0.000E+00	 1.172E+03	 1.208E+01	 2.786E+02	 0.000E+00	 0.000E+00	 0.000E+00	 0.000E+00	-9.110E-02	 2.627E-01	 0.000E+00	 0.000E+00	 5.004E+03	 4.319E+01
  57.362	 8.300E-01	 1.395E+00	 1.932E+01	 4.674E-01	 1.587E+00	 0.000E+00	 1.629E+01	 0.000E+00	 1.172E+03	 1.208E+01	 2.795E+02	 0.000E+00	 0.000E+00	 0.000E+00	 0.000E+00	-9.184E-02	 2.627E-01	 0.000E+00	 0.000E+00	 5.004E+03	 4.319E+01
  57.375	 8.300E-01	 1.395E+00	 1.932E+01	 4.604E-01	 1.596E+00	 0.000E+00	 1.629E+01	 0.000E+00	 1.172E+03	 1.208E+01	 2.804E+02	 0.000E+00	 0.000E+00	 0.000E+00	 0.000E+00	-9.258E-02	 2.626E-01	 0.000E+00	 0.000E+00	 5.004E+03	 4.319E+01
  57.388	 8.300E-01	 1.395E+00	 1.932E+01	 4.531E-01	 1.605E+00	 0.000E+00	 1.629E+01	 0.000E+00	 1.172E+03	 1.208E+01	 2.813E+02	 0.000E+00	 0.000E+00	 0.000E+00	 0.000E+00	-9.330E-02	 2.626E-01	 0.000E+00	 0.000E+00	 5.004E+03	 4.319E+01
  57.400	 8.300E-01	 1.395E+00	 1.932E+01	 4.453E-01	 1.614E+00	 0.000E+00	 1.629E+01	 0.000E+00	 1.172E+03	 1.208E+01	 2.822E+02	 0.000E+00	 0.000E+00	 0.000E+00	 0.000E+00	-9.402E-02	 2.626E-01	 0.000E+00	 0.000E+00	 5.004E+03	 4.319E+01
  57.413	 8.300E-01	 1.395E+00	 1.932E+01	 4.371E-01	 1.623E+00	 0.000E+00	 1.629E+01	 0.000E+00	 1.172E+03	 1.208E+01	 2.831E+02	 0.000E+00	 0.000E+00	 0.000E+00	 0.000E+00	-9.472E-02	 2.626E-01	 0.000E+00	 0.000E+00	 5.004E+03	 4.319E+01
  57.425	 8.300E-01	 1.395E+00	 1.932E+01	 4.285E-01	 1.632E+00	 0.000E+00	 1.629E+01	 0.000E+00	 1.172E+03	 1.208E+01	 2.840E+02	 0.000E+00	 0.000E+00	 0.000E+00	 0.000E+00	-9.542E-02	 2.626E-01	 0.000E+00	 0.000E+00	 5.004E+03	 4.319E+01
  57.438	 8.300E-01	 1.395E+00	 1.932E+01	 4.196E-01	 1.641E+00	 0.000E+00	 1.629E+01	 0.000E+00	 1.172E+03	 1.208E+01	 2.849E+02	 0.000E+00	 0.000E+00	 0.000E+00	 0.000E+00	-9.611E-02	 2.625E-01	 0.000E+00	 0.000E+00	 5.004E+03	 4.319E+01
  57.450	 8.300E-01	 1.395E+00	 1.932E+01	 4.102E-01	 1.649E+00	 0.000E+00	 1.629E+01	 0.000E+00	 1.172E+03	 1.208E+01	 2.858E+02	 0.000E+00	 0.000E+00	 0.000E+00	 0.000E+00	-9.678E-02	 2.625E-01	 0.000E+00	 0.000E+00	 5.004E+03	 4.319E+01
  57.463	 8.300E-01	 1.395E+00	 1.932E+01	 4.004E-01	 1.657E+00	 0.000E+00	 1.629E+01	 0.000E+00	 1.172E+03	 1.208E+01	 2.867E+02	 0.000E+00	 0.000E+00	 0.000E+00	 0.000E+00	-9.745E-02	 2.625E-01	 0.000E+00	 0.000E+00	 5.004E+03	 4.319E+01
  57.475	 8.300E-01	 1.395E+00	 1.932E+01	 3.903E-01	 1.666E+00	 0.000E+00	 1.629E+01	 0.000E+00	 1.172E+03	 1.208E+01	 2.876E+02	 0.000E+00	 0.000E+00	 0.000E+00	 0.000E+00	-9.810E-02	 2.624E-01	 0.000E+00	 0.000E+00	 5.004E+03	 4.319E+01
  57.487	 8.300E-01	 1.395E+00	 1.932E+01	 3.798E-01	 1.674E+00	 0.000E+00	 1.629E+01	 0.000E+00	 1.172E+03	 1.208E+01	 2.885E+02	 0.000E+00	 0.000E+00	 0.000E+00	 0.000E+00	-9.874E-02	 2.624E-01	 0.000E+00	 0.000E+00	 5.004E+03	 4.319E+01
  57.500	 8.300E-01	 1.395E+00	 1.932E+01	 3.690E-01	 1.682E+00	 0.000E+00	 1.629E+01	 0.000E+00	 1.172E+03	 1.208E+01	 2.895E+02	 0.000E+00	 0.000E+00	 0.000E+00	 0.000E+00	-9.937E-02	 2.624E-01	 0.000E+00	 0.000E+00	 5.004E+03	 4.319E+01
  57.513	 8.300E-01	 1.395E+00	 1.932E+01	 3.579E-01	 1.689E+00	 0.000E+00	 1.629E+01	 0.000E+00	 1.172E+03	 1.208E+01	 2.904E+02	 0.000E+00	 0.000E+00	 0.000E+00	 0.000E+00	-9.998E-02	 2.623E-01	 0.000E+00	 0.000E+00	 5.004E+03	 4.319E+01
  57.525	 8.300E-01	 1.395E+00	 1.932E+01	 3.464E-01	 1.697E+00	 0.000E+00	 1.629E+01	 0.000E+00	 1.172E+03	 1.208E+01	 2.913E+02	 0.000E+00	 0.000E+00	 0.000E+00	 0.000E+00	-1.006E-01	 2.623E-01	 0.000E+00	 0.000E+00	 5.004E+03	 4.319E+01
  57.538	 8.300E-01	 1.395E+00	 1.932E+01	 3.347E-01	 1.704E+00	 0.000E+00	 1.629E+01	 0.000E+00	 1.172E+03	 1.208E+01	 2.922E+02	 0.000E+00	 0.000E+00	 0.000E+00	 0.000E+00	-1.012E-01	 2.622E-01	 0.000E+00	 0.000E+00	 5.004E+03	 4.318E+01
  57.550	 8.300E-01	 1.395E+00	 1.932E+01	 3.227E-01	 1.712E+00	 0.000E+00	 1.629E+01	 0.000E+00	 1.172E+03	 1.208E+01	 2.931E+02	 0.000E+00	 0.000E+00	 0.000E+00	 0.000E+00	-1.017E-01	 2.622E-01	 0.000E+00	 0.000E+00	 5.004E+03	 4.318E+01
  57.562	 8.300E-01	 1.395E+00	 1.932E+01	 3.104E-01	 1.719E+00	 0.000E+00	 1.629E+01	 0.000E+00	 1.172E+03	 1.208E+01	 2.940E+02	 0.000E+00	 0.000E+00	 0.000E+00	 0.000E+00	-1.023E-01	 2.621E-01	 0.000E+00	 0.000E+00	 5.004E+03	 4.318E+01
  57.575	 8.300E-01	 1.395E+00	 1.932E+01	 2.979E-01	 1.726E+00	 0.000E+00	 1.629E+01	 0.000E+00	 1.172E+03	 1.208E+01	 2.949E+02	 0.000E+00	 0.000E+00	 0.000E+00	 0.000E+00	-1.029E-01	 2.621E-01	 0.000E+00	 0.000E+00	 5.004E+03	 4.318E+01
  57.588	 8.300E-01	 1.395E+00	 1.932E+01	 2.852E-01	 1.733E+00	 0.000E+00	 1.629E+01	 0.000E+00	 1.172E+03	 1.208E+01	 2.958E+02	 0.000E+00	 0.000E+00	 0.000E+00	 0.000E+00	-1.034E-01	 2.620E-01	 0.000E+00	 0.000E+00	 5.004E+03	 4.318E+01
  57.600	 8.300E-01	 1.395E+00	 1.932E+01	 2.722E-01	 1.739E+00	 0.000E+00	 1.629E+01	 0.000E+00	 1.172E+03	 1.209E+01	 2.967E+02	 0.000E+00	 0.000E+00	 0.000E+00	 0.000E+00	-1.039E-01	 2.620E-01	 0.000E+00	 0.000E+00	 5.004E+03	 4.318E+01
  57.612	 8.300E-01	 1.395E+00	 1.932E+01	 2.591E-01	 1.746E+00	 0.000E+00	 1.629E+01	 0.000E+00	 1.172E+03	 1.209E+01	 2.976E+02	 0.000E+00	 0.000E+00	 0.000E+00	 0.000E+00	-1.044E-01	 2.619E-01	 0.000E+00	 0.000E+00	 5.004E+03	 4.318E+01
  57.625	 8.300E-01	 1.395E+00	 1.932E+01	 2.458E-01	 1.753E+00	 0.000E+00	 1.629E+01	 0.000E+00	 1.172E+03	 1.209E+01	 2.985E+02	 0.000E+00	 0.000E+00	 0.000E+00	 0.000E+00	-1.049E-01	 2.619E-01	 0.000E+00	 0.000E+00	 5.004E+03	 4.318E+01
  57.638	 8.300E-01	 1.395E+00	 1.932E+01	 2.324E-01	 1.759E+00	 0.000E+00	 1.629E+01	 0.000E+00	 1.172E+03	 1.209E+01	 2.994E+02	 0.000E+00	 0.000E+00	 0.000E+00	 0.000E+00	-1.053E-01	 2.618E-01	 0.000E+00	 0.000E+00	 5.004E+03	 4.318E+01
  57.650	 8.300E-01	 1.395E+00	 1.932E+01	 2.188E-01	 1.766E+00	 0.000E+00	 1.629E+01	 0.000E+00	 1.172E+03	 1.209E+01	 3.003E+02	 0.000E+00	 0.000E+00	 0.000E+00	 0.000E+00	-1.058E-01	 2.617E-01	 0.000E+00	 0.000E+00	 5.004E+03	 4.318E+01
  57.663	 8.300E-01	 1.395E+00	 1.932E+01	 2.051E-01	 1.772E+00	 0.000E+00	 1.629E+01	 0.000E+00	 1.172E+03	 1.209E+01	 3.012E+02	 0.000E+00	 0.000E+00	 0.000E+00	 0.000E+00	-1.062E-01	 2.617E-01	 0.000E+00	 0.000E+00	 5.004E+03	 4.318E+01
  57.675	 8.300E-01	 1.395E+00	 1.932E+01	 1.913E-01	 1.778E+00	 0.000E+00	 1.629E+01	 0.000E+00	 1.172E+03	 1.209E+01	 3.021E+02	 0.000E+00	 0.000E+00	 0.000E+00	 0.000E+00	-1.066E-01	 2.616E-01	 0.000E+00	 0.000E+00	 5.004E+03	 4.318E+01
  57.688	 8.300E-01	 1.395E+00	 1.932E+01	 1.774E-01	 1.784E+00	 0.000E+00	 1.629E+01	 0.000E+00	 1.172E+03	 1.209E+01	 3.030E+02	 0.000E+00	 0.000E+00	 0.000E+00	 0.000E+00	-1.070E-01	 2.616E-01	 0.000E+00	 0.000E+00	 5.004E+03	 4.318E+01
  57.700	 8.300E-01	 1.395E+00	 1.932E+01	 1.634E-01	 1.790E+00	 0.000E+00	 1.629E+01	 0.000E+00	 1.173E+03	 1.209E+01	 3.040E+02	 0.000E+00	 0.000E+00	 0.000E+00	 0.000E+00	-1.074E-01	 2.615E-01	 0.000E+00	 0.000E+00	 5.004E+03	 4.318E+01
  57.713	 8.300E-01	 1.395E+00	 1.932E+01	 1.494E-01	 1.796E+00	 0.000E+00	 1.629E+01	 0.000E+00	 1.173E+03	 1.209E+01	 3.049E+02	 0.000E+00	 0.000E+00	 0.000E+00	 0.000E+00	-1.078E-01	 2.614E-01	 0.000E+00	 0.000E+00	 5.005E+03	 4.318E+01
  57.725	 8.300E-01	 1.395E+00	 1.932E+01	 1.354E-01	 1.802E+00	 0.000E+00	 1.629E+01	 0.000E+00	 1.173E+03	 1.209E+01	 3.058E+02	 0.000E+00	 0.000E+00	 0.000E+00	 0.000E+00	-1.081E-01	 2.614E-01	 0.000E+00	 0.000E+00	 5.005E+03	 4.317E+01
  57.737	 8.300E-01	 1.395E+00	 1.932E+01	 1.214E-01	 1.808E+00	 0.000E+00	 1.629E+01	 0.000E+00	 1.173E+03	 1.209E+01	 3.067E+02	 0.000E+00	 0.000E+00	 0.000E+00	 0.000E+00	-1.084E-01	 2.613E-01	 0.000E+00	 0.000E+00	 5.005E+03	 4.317E+01
  57.750	 8.300E-01	 1.395E+00	 1.932E+01	 1.073E-01	 1.813E+00	 0.000E+00	 1.629E+01	 0.000E+00	 1.173E+03	 1.209E+01	 3.076E+02	 0.000E+00	 0.000E+00	 0.000E+00	 0.000E+00	-1.088E-01	 2.612E-01	 0.000E+00	 0.000E+00	 5.005E+03	 4.317E+01
  57.763	 8.300E-01	 1.395E+00	 1.932E+01	 9.327E-02	 1.819E+00	 0.000E+00	 1.629E+01	 0.000E+00	 1.173E+03	 1.209E+01	 3.085E+02	 0.000E+00	 0.000E+00	 0.000E+00	 0.000E+00	-1.090E-01	 2.612E-01	 0.000E+00	 0.000E+00	 5.005E+03	 4.317E+01
  57.775	 8.300E-01	 1.395E+00	 1.932E+01	 7.924E-02	 1.824E+00	 0.000E+00	 1.629E+01	 0.000E+00	 1.173E+03	 1.209E+01	 3.094E+02	 0.000E+00	 0.000E+00	 0.000E+00	 0.000E+00	-1.093E-01	 2.611E-01	 0.000E+00	 0.000E+00	 5.005E+03	 4.317E+01
  57.788	 8.300E-01	 1.395E+00	 1.932E+01	 6.529E-02	 1.830E+00	 0.000E+00	 1.629E+01	 0.000E+00	 1.173E+03	 1.209E+01	 3.103E+02	 0.000E+00	 0.000E+00	 0.000E+00	 0.000E+00	-1.095E-01	 2.610E-01	 0.000E+00	 0.000E+00	 5.005E+03	 4.317E+01
  57.800	 8.300E-01	 1.395E+00	 1.932E+01	 5.137E-02	 1.835E+00	 0.000E+00	 1.629E+01	 0.000E+00	 1.173E+03	 1.209E+01	 3.112E+02	 0.000E+00	 0.000E+00	 0.000E+00	 0.000E+00	-1.098E-01	 2.610E-01	 0.000E+00	 0.000E+00	 5.006E+03	 4.317E+01
